/*---------------------------------------------------------------------------*\
| =========                 |                                                 |
| \\      /  F ield         | OpenFOAM: The Open Source CFD Toolbox           |
|  \\    /   O peration     | Version:  2506                                  |
|   \\  /    A nd           | Website:  www.openfoam.com                      |
|    \\/     M anipulation  |                                                 |
\*---------------------------------------------------------------------------*/
Build  : _615aae61-20250627 OPENFOAM=2506 version=2506
Arch   : "LSB;label=32;scalar=64"
Exec   : icoFoam
Date   : Jul 11 2025
Time   : 22:50:07
Host   : 97b9b357991d
PID    : 293
I/O    : uncollated
Case   : /home/openfoam/myproject/cavityHighRe
nProcs : 1
trapFpe: Floating point exception trapping enabled (FOAM_SIGFPE).
fileModificationChecking : Monitoring run-time modified files using timeStampMaster (fileModificationSkew 5, maxFileModificationPolls 20)
allowSystemOperations : Allowing user-supplied system call operations

// * * * * * * * * * * * * * * * * * * * * * * * * * * * * * * * * * * * * * //
Create time

Create mesh for time = 0.875


PISO: Operating solver in PISO mode

Reading transportProperties

Reading field p

Reading field U

Reading/calculating face flux field phi


Starting time loop

Time = 0.8775

Courant Number mean: 0.451315 max: 1.92662
smoothSolver:  Solving for Ux, Initial residual = 0.130686, Final residual = 8.02168e-06, No Iterations 16
smoothSolver:  Solving for Uy, Initial residual = 0.164601, Final residual = 8.08234e-06, No Iterations 16
DICPCG:  Solving for p, Initial residual = 0.796455, Final residual = 0.0207065, No Iterations 48
time step continuity errors : sum local = 0.000268422, global = -2.30122e-19, cumulative = 7.14837e-18
DICPCG:  Solving for p, Initial residual = 0.876445, Final residual = 8.41823e-07, No Iterations 139
time step continuity errors : sum local = 7.12387e-09, global = -2.12429e-19, cumulative = 6.93594e-18
ExecutionTime = 0.4 s  ClockTime = 1 s

Time = 0.88

Courant Number mean: 0.452022 max: 1.9341
smoothSolver:  Solving for Ux, Initial residual = 0.0238308, Final residual = 6.34306e-06, No Iterations 13
smoothSolver:  Solving for Uy, Initial residual = 0.0357791, Final residual = 8.86624e-06, No Iterations 13
DICPCG:  Solving for p, Initial residual = 0.824527, Final residual = 0.0214366, No Iterations 36
time step continuity errors : sum local = 8.43775e-05, global = -2.14405e-19, cumulative = 6.72153e-18
DICPCG:  Solving for p, Initial residual = 0.656479, Final residual = 7.67466e-07, No Iterations 134
time step continuity errors : sum local = 2.24276e-09, global = 5.80616e-20, cumulative = 6.7796e-18
ExecutionTime = 0.43 s  ClockTime = 1 s

Time = 0.8825

Courant Number mean: 0.451346 max: 1.93011
smoothSolver:  Solving for Ux, Initial residual = 0.011307, Final residual = 9.78401e-06, No Iterations 12
smoothSolver:  Solving for Uy, Initial residual = 0.0174942, Final residual = 8.6721e-06, No Iterations 13
DICPCG:  Solving for p, Initial residual = 0.39032, Final residual = 0.010589, No Iterations 77
time step continuity errors : sum local = 1.76468e-05, global = -5.47348e-19, cumulative = 6.23225e-18
DICPCG:  Solving for p, Initial residual = 0.245652, Final residual = 6.63781e-07, No Iterations 131
time step continuity errors : sum local = 1.27013e-09, global = 6.30334e-20, cumulative = 6.29528e-18
ExecutionTime = 0.46 s  ClockTime = 1 s

Time = 0.885

Courant Number mean: 0.451106 max: 1.92894
smoothSolver:  Solving for Ux, Initial residual = 0.00493516, Final residual = 7.38045e-06, No Iterations 11
smoothSolver:  Solving for Uy, Initial residual = 0.00806769, Final residual = 7.27831e-06, No Iterations 12
DICPCG:  Solving for p, Initial residual = 0.120513, Final residual = 0.00361194, No Iterations 78
time step continuity errors : sum local = 4.45507e-06, global = 4.93548e-19, cumulative = 6.78883e-18
DICPCG:  Solving for p, Initial residual = 0.0858111, Final residual = 8.06011e-07, No Iterations 123
time step continuity errors : sum local = 9.99595e-10, global = -9.49821e-20, cumulative = 6.69385e-18
ExecutionTime = 0.51 s  ClockTime = 1 s

Time = 0.8875

Courant Number mean: 0.450937 max: 1.92899
smoothSolver:  Solving for Ux, Initial residual = 0.00387223, Final residual = 6.57689e-06, No Iterations 11
smoothSolver:  Solving for Uy, Initial residual = 0.00599694, Final residual = 5.95903e-06, No Iterations 12
DICPCG:  Solving for p, Initial residual = 0.0444223, Final residual = 0.00117806, No Iterations 39
time step continuity errors : sum local = 1.4542e-06, global = -2.32981e-19, cumulative = 6.46087e-18
DICPCG:  Solving for p, Initial residual = 0.0346337, Final residual = 9.73691e-07, No Iterations 126
time step continuity errors : sum local = 1.16914e-09, global = -1.81801e-19, cumulative = 6.27907e-18
ExecutionTime = 0.53 s  ClockTime = 1 s

Time = 0.89

Courant Number mean: 0.450789 max: 1.92892
smoothSolver:  Solving for Ux, Initial residual = 0.00346312, Final residual = 6.14868e-06, No Iterations 11
smoothSolver:  Solving for Uy, Initial residual = 0.00547639, Final residual = 5.72626e-06, No Iterations 12
DICPCG:  Solving for p, Initial residual = 0.0292348, Final residual = 0.000831988, No Iterations 77
time step continuity errors : sum local = 1.00131e-06, global = 3.42729e-19, cumulative = 6.62179e-18
DICPCG:  Solving for p, Initial residual = 0.0238447, Final residual = 7.97283e-07, No Iterations 126
time step continuity errors : sum local = 9.51793e-10, global = -8.30602e-20, cumulative = 6.53873e-18
ExecutionTime = 0.57 s  ClockTime = 2 s

Time = 0.8925

Courant Number mean: 0.45065 max: 1.92894
smoothSolver:  Solving for Ux, Initial residual = 0.00315426, Final residual = 5.68896e-06, No Iterations 11
smoothSolver:  Solving for Uy, Initial residual = 0.0050599, Final residual = 9.56395e-06, No Iterations 11
DICPCG:  Solving for p, Initial residual = 0.0246091, Final residual = 0.000697714, No Iterations 41
time step continuity errors : sum local = 8.64787e-07, global = 4.10088e-19, cumulative = 6.94882e-18
DICPCG:  Solving for p, Initial residual = 0.0204059, Final residual = 8.78076e-07, No Iterations 125
time step continuity errors : sum local = 1.05116e-09, global = 5.68718e-19, cumulative = 7.51754e-18
ExecutionTime = 0.59 s  ClockTime = 2 s

Time = 0.895

Courant Number mean: 0.450514 max: 1.92901
smoothSolver:  Solving for Ux, Initial residual = 0.00296544, Final residual = 9.63182e-06, No Iterations 10
smoothSolver:  Solving for Uy, Initial residual = 0.0047206, Final residual = 9.05632e-06, No Iterations 11
DICPCG:  Solving for p, Initial residual = 0.0225767, Final residual = 0.000616342, No Iterations 47
time step continuity errors : sum local = 8.63268e-07, global = 2.55847e-19, cumulative = 7.77339e-18
DICPCG:  Solving for p, Initial residual = 0.0187216, Final residual = 9.64411e-07, No Iterations 124
time step continuity errors : sum local = 1.15685e-09, global = -5.01126e-20, cumulative = 7.72327e-18
ExecutionTime = 0.62 s  ClockTime = 2 s

Time = 0.8975

Courant Number mean: 0.450379 max: 1.92906
smoothSolver:  Solving for Ux, Initial residual = 0.00276522, Final residual = 9.00248e-06, No Iterations 10
smoothSolver:  Solving for Uy, Initial residual = 0.004474, Final residual = 8.69707e-06, No Iterations 11
DICPCG:  Solving for p, Initial residual = 0.0210973, Final residual = 0.000595729, No Iterations 92
time step continuity errors : sum local = 7.16677e-07, global = 3.94364e-19, cumulative = 8.11764e-18
DICPCG:  Solving for p, Initial residual = 0.0175321, Final residual = 8.70937e-07, No Iterations 124
time step continuity errors : sum local = 1.04649e-09, global = -3.90718e-19, cumulative = 7.72692e-18
ExecutionTime = 0.64 s  ClockTime = 2 s

Time = 0.9

Courant Number mean: 0.450241 max: 1.92909
smoothSolver:  Solving for Ux, Initial residual = 0.00260927, Final residual = 8.59206e-06, No Iterations 10
smoothSolver:  Solving for Uy, Initial residual = 0.00419115, Final residual = 8.2164e-06, No Iterations 11
DICPCG:  Solving for p, Initial residual = 0.0188674, Final residual = 0.00050019, No Iterations 44
time step continuity errors : sum local = 6.48886e-07, global = -7.56702e-19, cumulative = 6.97022e-18
DICPCG:  Solving for p, Initial residual = 0.0158707, Final residual = 8.78847e-07, No Iterations 123
time step continuity errors : sum local = 1.05307e-09, global = 6.36542e-19, cumulative = 7.60676e-18
ExecutionTime = 0.66 s  ClockTime = 2 s

Time = 0.9025

Courant Number mean: 0.450106 max: 1.92913
smoothSolver:  Solving for Ux, Initial residual = 0.00245923, Final residual = 8.13522e-06, No Iterations 10
smoothSolver:  Solving for Uy, Initial residual = 0.00397323, Final residual = 7.86233e-06, No Iterations 11
DICPCG:  Solving for p, Initial residual = 0.0180646, Final residual = 0.000456192, No Iterations 46
time step continuity errors : sum local = 6.48958e-07, global = -1.20241e-19, cumulative = 7.48652e-18
DICPCG:  Solving for p, Initial residual = 0.0150914, Final residual = 9.04013e-07, No Iterations 123
time step continuity errors : sum local = 1.08465e-09, global = 1.25525e-19, cumulative = 7.61204e-18
ExecutionTime = 0.68 s  ClockTime = 2 s

Time = 0.905

Courant Number mean: 0.449969 max: 1.92915
smoothSolver:  Solving for Ux, Initial residual = 0.0023555, Final residual = 7.84423e-06, No Iterations 10
smoothSolver:  Solving for Uy, Initial residual = 0.0037684, Final residual = 7.48515e-06, No Iterations 11
DICPCG:  Solving for p, Initial residual = 0.0171481, Final residual = 0.000438172, No Iterations 79
time step continuity errors : sum local = 5.30123e-07, global = 6.89605e-19, cumulative = 8.30165e-18
DICPCG:  Solving for p, Initial residual = 0.0144245, Final residual = 9.18502e-07, No Iterations 122
time step continuity errors : sum local = 1.0994e-09, global = 2.49679e-19, cumulative = 8.55133e-18
ExecutionTime = 0.7 s  ClockTime = 2 s

Time = 0.9075

Courant Number mean: 0.449835 max: 1.92914
smoothSolver:  Solving for Ux, Initial residual = 0.00220292, Final residual = 7.36447e-06, No Iterations 10
smoothSolver:  Solving for Uy, Initial residual = 0.003579, Final residual = 7.18063e-06, No Iterations 11
DICPCG:  Solving for p, Initial residual = 0.0156632, Final residual = 0.000465923, No Iterations 40
time step continuity errors : sum local = 5.86623e-07, global = 3.42181e-19, cumulative = 8.89351e-18
DICPCG:  Solving for p, Initial residual = 0.0132208, Final residual = 8.4655e-07, No Iterations 122
time step continuity errors : sum local = 1.01677e-09, global = 7.64612e-19, cumulative = 9.65812e-18
ExecutionTime = 0.72 s  ClockTime = 2 s

Time = 0.91

Courant Number mean: 0.449705 max: 1.92914
smoothSolver:  Solving for Ux, Initial residual = 0.00211235, Final residual = 7.10244e-06, No Iterations 10
smoothSolver:  Solving for Uy, Initial residual = 0.00339313, Final residual = 6.83441e-06, No Iterations 11
DICPCG:  Solving for p, Initial residual = 0.0151179, Final residual = 0.000435314, No Iterations 78
time step continuity errors : sum local = 5.25103e-07, global = -2.3676e-19, cumulative = 9.42136e-18
DICPCG:  Solving for p, Initial residual = 0.0127412, Final residual = 8.39143e-07, No Iterations 122
time step continuity errors : sum local = 1.00801e-09, global = 3.74863e-19, cumulative = 9.79622e-18
ExecutionTime = 0.75 s  ClockTime = 2 s

Time = 0.9125

Courant Number mean: 0.449578 max: 1.92913
smoothSolver:  Solving for Ux, Initial residual = 0.00199225, Final residual = 6.7158e-06, No Iterations 10
smoothSolver:  Solving for Uy, Initial residual = 0.00324537, Final residual = 6.58061e-06, No Iterations 11
DICPCG:  Solving for p, Initial residual = 0.014056, Final residual = 0.000405057, No Iterations 39
time step continuity errors : sum local = 4.86097e-07, global = 3.15719e-19, cumulative = 1.01119e-17
DICPCG:  Solving for p, Initial residual = 0.0118658, Final residual = 8.4203e-07, No Iterations 122
time step continuity errors : sum local = 1.01258e-09, global = -2.90878e-19, cumulative = 9.82107e-18
ExecutionTime = 0.76 s  ClockTime = 2 s

Time = 0.915

Courant Number mean: 0.449453 max: 1.92909
smoothSolver:  Solving for Ux, Initial residual = 0.00190755, Final residual = 6.46044e-06, No Iterations 10
smoothSolver:  Solving for Uy, Initial residual = 0.00308518, Final residual = 6.28008e-06, No Iterations 11
DICPCG:  Solving for p, Initial residual = 0.0134041, Final residual = 0.000334202, No Iterations 37
time step continuity errors : sum local = 4.33393e-07, global = 6.25462e-19, cumulative = 1.04465e-17
DICPCG:  Solving for p, Initial residual = 0.0113719, Final residual = 8.6049e-07, No Iterations 122
time step continuity errors : sum local = 1.03391e-09, global = 3.10311e-19, cumulative = 1.07568e-17
ExecutionTime = 0.8 s  ClockTime = 2 s

Time = 0.9175

Courant Number mean: 0.449328 max: 1.92904
smoothSolver:  Solving for Ux, Initial residual = 0.0018177, Final residual = 6.16609e-06, No Iterations 10
smoothSolver:  Solving for Uy, Initial residual = 0.00295989, Final residual = 6.04903e-06, No Iterations 11
DICPCG:  Solving for p, Initial residual = 0.0128771, Final residual = 0.000373676, No Iterations 36
time step continuity errors : sum local = 5.0555e-07, global = -1.60041e-19, cumulative = 1.05968e-17
DICPCG:  Solving for p, Initial residual = 0.0109689, Final residual = 9.48385e-07, No Iterations 121
time step continuity errors : sum local = 1.13867e-09, global = 1.00974e-18, cumulative = 1.16065e-17
ExecutionTime = 0.82 s  ClockTime = 2 s

Time = 0.92

Courant Number mean: 0.449211 max: 1.92901
smoothSolver:  Solving for Ux, Initial residual = 0.00175361, Final residual = 5.972e-06, No Iterations 10
smoothSolver:  Solving for Uy, Initial residual = 0.00281897, Final residual = 5.76535e-06, No Iterations 11
DICPCG:  Solving for p, Initial residual = 0.0123844, Final residual = 0.000359682, No Iterations 79
time step continuity errors : sum local = 4.35697e-07, global = 7.32624e-20, cumulative = 1.16798e-17
DICPCG:  Solving for p, Initial residual = 0.0104431, Final residual = 8.75214e-07, No Iterations 121
time step continuity errors : sum local = 1.04869e-09, global = 1.19899e-19, cumulative = 1.17997e-17
ExecutionTime = 0.84 s  ClockTime = 2 s

Time = 0.9225

Courant Number mean: 0.449101 max: 1.92895
smoothSolver:  Solving for Ux, Initial residual = 0.00164496, Final residual = 9.88853e-06, No Iterations 9
smoothSolver:  Solving for Uy, Initial residual = 0.00270471, Final residual = 9.75584e-06, No Iterations 10
DICPCG:  Solving for p, Initial residual = 0.0112466, Final residual = 0.000319831, No Iterations 42
time step continuity errors : sum local = 4.11103e-07, global = 6.4243e-19, cumulative = 1.24421e-17
DICPCG:  Solving for p, Initial residual = 0.00948265, Final residual = 7.85716e-07, No Iterations 121
time step continuity errors : sum local = 9.43361e-10, global = -9.94804e-20, cumulative = 1.23426e-17
ExecutionTime = 0.87 s  ClockTime = 2 s

Time = 0.925

Courant Number mean: 0.448996 max: 1.92887
smoothSolver:  Solving for Ux, Initial residual = 0.00159061, Final residual = 9.59169e-06, No Iterations 9
smoothSolver:  Solving for Uy, Initial residual = 0.0025844, Final residual = 9.32829e-06, No Iterations 10
DICPCG:  Solving for p, Initial residual = 0.0108683, Final residual = 0.00027854, No Iterations 79
time step continuity errors : sum local = 3.34923e-07, global = -2.46634e-19, cumulative = 1.2096e-17
DICPCG:  Solving for p, Initial residual = 0.00918414, Final residual = 9.40175e-07, No Iterations 120
time step continuity errors : sum local = 1.12847e-09, global = -2.04587e-19, cumulative = 1.18914e-17
ExecutionTime = 0.92 s  ClockTime = 2 s

Time = 0.9275

Courant Number mean: 0.448895 max: 1.92879
smoothSolver:  Solving for Ux, Initial residual = 0.00151195, Final residual = 9.13313e-06, No Iterations 9
smoothSolver:  Solving for Uy, Initial residual = 0.00248272, Final residual = 8.9964e-06, No Iterations 10
DICPCG:  Solving for p, Initial residual = 0.0102556, Final residual = 0.000299153, No Iterations 38
time step continuity errors : sum local = 3.62293e-07, global = -2.19834e-19, cumulative = 1.16716e-17
DICPCG:  Solving for p, Initial residual = 0.00870925, Final residual = 9.32834e-07, No Iterations 109
time step continuity errors : sum local = 1.13422e-09, global = -2.06469e-19, cumulative = 1.14651e-17
ExecutionTime = 0.93 s  ClockTime = 2 s

Time = 0.93

Courant Number mean: 0.448797 max: 1.92873
smoothSolver:  Solving for Ux, Initial residual = 0.00145601, Final residual = 8.81857e-06, No Iterations 9
smoothSolver:  Solving for Uy, Initial residual = 0.00237323, Final residual = 8.6118e-06, No Iterations 10
DICPCG:  Solving for p, Initial residual = 0.00986853, Final residual = 0.000248735, No Iterations 36
time step continuity errors : sum local = 3.26104e-07, global = 4.96878e-20, cumulative = 1.15148e-17
DICPCG:  Solving for p, Initial residual = 0.00839012, Final residual = 7.59695e-07, No Iterations 120
time step continuity errors : sum local = 9.12268e-10, global = 3.29061e-19, cumulative = 1.18439e-17
ExecutionTime = 0.95 s  ClockTime = 2 s

Time = 0.9325

Courant Number mean: 0.448706 max: 1.92865
smoothSolver:  Solving for Ux, Initial residual = 0.0013918, Final residual = 8.43321e-06, No Iterations 9
smoothSolver:  Solving for Uy, Initial residual = 0.00228746, Final residual = 8.3151e-06, No Iterations 10
DICPCG:  Solving for p, Initial residual = 0.00950934, Final residual = 0.000271784, No Iterations 78
time step continuity errors : sum local = 3.27614e-07, global = 2.85395e-19, cumulative = 1.21293e-17
DICPCG:  Solving for p, Initial residual = 0.00805354, Final residual = 9.58985e-07, No Iterations 119
time step continuity errors : sum local = 1.15257e-09, global = 1.51283e-19, cumulative = 1.22805e-17
ExecutionTime = 0.99 s  ClockTime = 2 s

Time = 0.935

Courant Number mean: 0.448623 max: 1.92855
smoothSolver:  Solving for Ux, Initial residual = 0.00132944, Final residual = 8.07382e-06, No Iterations 9
smoothSolver:  Solving for Uy, Initial residual = 0.00218782, Final residual = 7.96488e-06, No Iterations 10
DICPCG:  Solving for p, Initial residual = 0.0088441, Final residual = 0.000244844, No Iterations 39
time step continuity errors : sum local = 3.07971e-07, global = -1.40784e-19, cumulative = 1.21398e-17
DICPCG:  Solving for p, Initial residual = 0.00749361, Final residual = 8.17106e-07, No Iterations 119
time step continuity errors : sum local = 9.83567e-10, global = 3.79477e-19, cumulative = 1.25192e-17
ExecutionTime = 1.01 s  ClockTime = 2 s

Time = 0.9375

Courant Number mean: 0.448547 max: 1.92844
smoothSolver:  Solving for Ux, Initial residual = 0.00128033, Final residual = 7.78817e-06, No Iterations 9
smoothSolver:  Solving for Uy, Initial residual = 0.00209882, Final residual = 7.65308e-06, No Iterations 10
DICPCG:  Solving for p, Initial residual = 0.00848838, Final residual = 0.000218275, No Iterations 37
time step continuity errors : sum local = 2.79168e-07, global = -2.46138e-20, cumulative = 1.24946e-17
DICPCG:  Solving for p, Initial residual = 0.00719826, Final residual = 8.08642e-07, No Iterations 119
time step continuity errors : sum local = 9.71976e-10, global = -2.31957e-19, cumulative = 1.22627e-17
ExecutionTime = 1.03 s  ClockTime = 2 s

Time = 0.94

Courant Number mean: 0.448476 max: 1.92834
smoothSolver:  Solving for Ux, Initial residual = 0.0012378, Final residual = 7.54274e-06, No Iterations 9
smoothSolver:  Solving for Uy, Initial residual = 0.00200952, Final residual = 7.3289e-06, No Iterations 10
DICPCG:  Solving for p, Initial residual = 0.00817836, Final residual = 0.00019442, No Iterations 79
time step continuity errors : sum local = 2.3495e-07, global = -2.55402e-19, cumulative = 1.20073e-17
DICPCG:  Solving for p, Initial residual = 0.00691251, Final residual = 7.52613e-07, No Iterations 119
time step continuity errors : sum local = 9.04718e-10, global = 2.16633e-19, cumulative = 1.22239e-17
ExecutionTime = 1.05 s  ClockTime = 2 s

Time = 0.9425

Courant Number mean: 0.448408 max: 1.92825
smoothSolver:  Solving for Ux, Initial residual = 0.00117603, Final residual = 7.16909e-06, No Iterations 9
smoothSolver:  Solving for Uy, Initial residual = 0.00193346, Final residual = 7.06886e-06, No Iterations 10
DICPCG:  Solving for p, Initial residual = 0.0075212, Final residual = 0.000215434, No Iterations 39
time step continuity errors : sum local = 2.6636e-07, global = 3.88333e-19, cumulative = 1.26122e-17
DICPCG:  Solving for p, Initial residual = 0.00638942, Final residual = 9.34659e-07, No Iterations 118
time step continuity errors : sum local = 1.12283e-09, global = -4.9651e-19, cumulative = 1.21157e-17
ExecutionTime = 1.07 s  ClockTime = 2 s

Time = 0.945

Courant Number mean: 0.448345 max: 1.92815
smoothSolver:  Solving for Ux, Initial residual = 0.00113914, Final residual = 6.95882e-06, No Iterations 9
smoothSolver:  Solving for Uy, Initial residual = 0.00185255, Final residual = 6.77395e-06, No Iterations 10
DICPCG:  Solving for p, Initial residual = 0.00732237, Final residual = 0.000195362, No Iterations 36
time step continuity errors : sum local = 2.69917e-07, global = -2.59109e-19, cumulative = 1.18566e-17
DICPCG:  Solving for p, Initial residual = 0.00620527, Final residual = 8.64835e-07, No Iterations 118
time step continuity errors : sum local = 1.03956e-09, global = 2.60299e-19, cumulative = 1.21169e-17
ExecutionTime = 1.09 s  ClockTime = 2 s

Time = 0.9475

Courant Number mean: 0.448287 max: 1.92804
smoothSolver:  Solving for Ux, Initial residual = 0.0010912, Final residual = 6.66203e-06, No Iterations 9
smoothSolver:  Solving for Uy, Initial residual = 0.00179346, Final residual = 6.56334e-06, No Iterations 10
DICPCG:  Solving for p, Initial residual = 0.0071314, Final residual = 0.000203124, No Iterations 72
time step continuity errors : sum local = 2.45338e-07, global = 3.7866e-19, cumulative = 1.24956e-17
DICPCG:  Solving for p, Initial residual = 0.00602578, Final residual = 7.1494e-07, No Iterations 118
time step continuity errors : sum local = 8.5935e-10, global = 1.34871e-19, cumulative = 1.26304e-17
ExecutionTime = 1.11 s  ClockTime = 3 s

Time = 0.95

Courant Number mean: 0.448238 max: 1.92792
smoothSolver:  Solving for Ux, Initial residual = 0.0010463, Final residual = 6.40772e-06, No Iterations 9
smoothSolver:  Solving for Uy, Initial residual = 0.00171035, Final residual = 6.26769e-06, No Iterations 10
DICPCG:  Solving for p, Initial residual = 0.00651551, Final residual = 0.000193912, No Iterations 38
time step continuity errors : sum local = 2.42432e-07, global = 2.54467e-19, cumulative = 1.28849e-17
DICPCG:  Solving for p, Initial residual = 0.00555811, Final residual = 7.3319e-07, No Iterations 118
time step continuity errors : sum local = 8.80965e-10, global = -1.61394e-19, cumulative = 1.27235e-17
ExecutionTime = 1.13 s  ClockTime = 3 s

Time = 0.9525

Courant Number mean: 0.448194 max: 1.9278
smoothSolver:  Solving for Ux, Initial residual = 0.00101037, Final residual = 6.19412e-06, No Iterations 9
smoothSolver:  Solving for Uy, Initial residual = 0.00164408, Final residual = 6.03278e-06, No Iterations 10
DICPCG:  Solving for p, Initial residual = 0.00633141, Final residual = 0.000168712, No Iterations 37
time step continuity errors : sum local = 2.2217e-07, global = -7.18732e-19, cumulative = 1.20048e-17
DICPCG:  Solving for p, Initial residual = 0.00541232, Final residual = 9.47009e-07, No Iterations 117
time step continuity errors : sum local = 1.13772e-09, global = 1.48996e-20, cumulative = 1.20197e-17
ExecutionTime = 1.15 s  ClockTime = 3 s

Time = 0.955

Courant Number mean: 0.448157 max: 1.92767
smoothSolver:  Solving for Ux, Initial residual = 0.000980144, Final residual = 6.01613e-06, No Iterations 9
smoothSolver:  Solving for Uy, Initial residual = 0.00157434, Final residual = 5.77326e-06, No Iterations 10
DICPCG:  Solving for p, Initial residual = 0.00607048, Final residual = 0.000139268, No Iterations 79
time step continuity errors : sum local = 1.67941e-07, global = 1.00804e-19, cumulative = 1.21205e-17
DICPCG:  Solving for p, Initial residual = 0.00513698, Final residual = 9.14485e-07, No Iterations 117
time step continuity errors : sum local = 1.09863e-09, global = 5.24738e-19, cumulative = 1.26452e-17
ExecutionTime = 1.17 s  ClockTime = 3 s

Time = 0.9575

Courant Number mean: 0.448125 max: 1.92756
smoothSolver:  Solving for Ux, Initial residual = 0.000934539, Final residual = 5.73811e-06, No Iterations 9
smoothSolver:  Solving for Uy, Initial residual = 0.00151401, Final residual = 9.7436e-06, No Iterations 9
DICPCG:  Solving for p, Initial residual = 0.00551314, Final residual = 0.000159779, No Iterations 39
time step continuity errors : sum local = 1.96791e-07, global = -1.04819e-20, cumulative = 1.26347e-17
DICPCG:  Solving for p, Initial residual = 0.0046789, Final residual = 7.95144e-07, No Iterations 117
time step continuity errors : sum local = 9.55435e-10, global = 1.52797e-19, cumulative = 1.27875e-17
ExecutionTime = 1.19 s  ClockTime = 3 s

Time = 0.96

Courant Number mean: 0.4481 max: 1.92746
smoothSolver:  Solving for Ux, Initial residual = 0.000905738, Final residual = 9.80474e-06, No Iterations 8
smoothSolver:  Solving for Uy, Initial residual = 0.00145269, Final residual = 9.34975e-06, No Iterations 9
DICPCG:  Solving for p, Initial residual = 0.00538306, Final residual = 0.000154275, No Iterations 31
time step continuity errors : sum local = 2.06949e-07, global = -3.10772e-19, cumulative = 1.24768e-17
DICPCG:  Solving for p, Initial residual = 0.00456102, Final residual = 7.7627e-07, No Iterations 117
time step continuity errors : sum local = 9.3171e-10, global = -3.08172e-19, cumulative = 1.21686e-17
ExecutionTime = 1.21 s  ClockTime = 3 s

Time = 0.9625

Courant Number mean: 0.44808 max: 1.92735
smoothSolver:  Solving for Ux, Initial residual = 0.000871267, Final residual = 9.4262e-06, No Iterations 8
smoothSolver:  Solving for Uy, Initial residual = 0.00140561, Final residual = 9.05306e-06, No Iterations 9
DICPCG:  Solving for p, Initial residual = 0.00517917, Final residual = 0.000144867, No Iterations 78
time step continuity errors : sum local = 1.74126e-07, global = 4.07363e-19, cumulative = 1.2576e-17
DICPCG:  Solving for p, Initial residual = 0.00438889, Final residual = 8.62778e-07, No Iterations 111
time step continuity errors : sum local = 1.0405e-09, global = -6.13737e-19, cumulative = 1.19622e-17
ExecutionTime = 1.23 s  ClockTime = 3 s

Time = 0.965

Courant Number mean: 0.448065 max: 1.92724
smoothSolver:  Solving for Ux, Initial residual = 0.000839178, Final residual = 9.09834e-06, No Iterations 8
smoothSolver:  Solving for Uy, Initial residual = 0.00134326, Final residual = 8.65596e-06, No Iterations 9
DICPCG:  Solving for p, Initial residual = 0.00480167, Final residual = 0.000136046, No Iterations 25
time step continuity errors : sum local = 1.69178e-07, global = 1.47417e-19, cumulative = 1.21096e-17
DICPCG:  Solving for p, Initial residual = 0.00404777, Final residual = 9.98959e-07, No Iterations 110
time step continuity errors : sum local = 1.20499e-09, global = 2.95547e-19, cumulative = 1.24052e-17
ExecutionTime = 1.25 s  ClockTime = 3 s

Time = 0.9675

Courant Number mean: 0.448056 max: 1.92713
smoothSolver:  Solving for Ux, Initial residual = 0.000808985, Final residual = 8.77595e-06, No Iterations 8
smoothSolver:  Solving for Uy, Initial residual = 0.00129249, Final residual = 8.33556e-06, No Iterations 9
DICPCG:  Solving for p, Initial residual = 0.00452478, Final residual = 0.000132382, No Iterations 30
time step continuity errors : sum local = 1.77196e-07, global = 3.89059e-19, cumulative = 1.27942e-17
DICPCG:  Solving for p, Initial residual = 0.00380955, Final residual = 9.52998e-07, No Iterations 110
time step continuity errors : sum local = 1.14942e-09, global = -1.24571e-19, cumulative = 1.26697e-17
ExecutionTime = 1.29 s  ClockTime = 3 s

Time = 0.97

Courant Number mean: 0.448052 max: 1.92701
smoothSolver:  Solving for Ux, Initial residual = 0.000786746, Final residual = 8.54424e-06, No Iterations 8
smoothSolver:  Solving for Uy, Initial residual = 0.00123585, Final residual = 7.96635e-06, No Iterations 9
DICPCG:  Solving for p, Initial residual = 0.00442402, Final residual = 0.000112151, No Iterations 91
time step continuity errors : sum local = 1.34977e-07, global = 1.9461e-19, cumulative = 1.28643e-17
DICPCG:  Solving for p, Initial residual = 0.0037508, Final residual = 9.90392e-07, No Iterations 113
time step continuity errors : sum local = 1.18892e-09, global = 4.17502e-19, cumulative = 1.32818e-17
ExecutionTime = 1.31 s  ClockTime = 3 s

Time = 0.9725

Courant Number mean: 0.448053 max: 1.9269
smoothSolver:  Solving for Ux, Initial residual = 0.000755464, Final residual = 8.21292e-06, No Iterations 8
smoothSolver:  Solving for Uy, Initial residual = 0.00118849, Final residual = 7.67363e-06, No Iterations 9
DICPCG:  Solving for p, Initial residual = 0.00411112, Final residual = 0.000116439, No Iterations 36
time step continuity errors : sum local = 1.41126e-07, global = 5.18392e-19, cumulative = 1.38002e-17
DICPCG:  Solving for p, Initial residual = 0.00350291, Final residual = 8.56947e-07, No Iterations 100
time step continuity errors : sum local = 1.03992e-09, global = 1.56925e-19, cumulative = 1.39571e-17
ExecutionTime = 1.34 s  ClockTime = 3 s

Time = 0.975

Courant Number mean: 0.44806 max: 1.92678
smoothSolver:  Solving for Ux, Initial residual = 0.000731096, Final residual = 7.95955e-06, No Iterations 8
smoothSolver:  Solving for Uy, Initial residual = 0.0011421, Final residual = 7.37932e-06, No Iterations 9
DICPCG:  Solving for p, Initial residual = 0.00398823, Final residual = 0.000111965, No Iterations 25
time step continuity errors : sum local = 1.39449e-07, global = -2.5911e-19, cumulative = 1.3698e-17
DICPCG:  Solving for p, Initial residual = 0.0033444, Final residual = 8.76828e-07, No Iterations 110
time step continuity errors : sum local = 1.05653e-09, global = -6.05257e-19, cumulative = 1.30927e-17
ExecutionTime = 1.44 s  ClockTime = 3 s

Time = 0.9775

Courant Number mean: 0.448071 max: 1.92667
smoothSolver:  Solving for Ux, Initial residual = 0.00070313, Final residual = 7.65244e-06, No Iterations 8
smoothSolver:  Solving for Uy, Initial residual = 0.00109987, Final residual = 7.10886e-06, No Iterations 9
DICPCG:  Solving for p, Initial residual = 0.00369455, Final residual = 0.000109204, No Iterations 41
time step continuity errors : sum local = 1.49291e-07, global = -3.39015e-20, cumulative = 1.30588e-17
DICPCG:  Solving for p, Initial residual = 0.00313117, Final residual = 7.80338e-07, No Iterations 110
time step continuity errors : sum local = 9.39049e-10, global = 3.02946e-19, cumulative = 1.33618e-17
ExecutionTime = 1.49 s  ClockTime = 3 s

Time = 0.98

Courant Number mean: 0.448086 max: 1.92656
smoothSolver:  Solving for Ux, Initial residual = 0.000685231, Final residual = 7.46896e-06, No Iterations 8
smoothSolver:  Solving for Uy, Initial residual = 0.00105673, Final residual = 6.82146e-06, No Iterations 9
DICPCG:  Solving for p, Initial residual = 0.00365829, Final residual = 8.92919e-05, No Iterations 79
time step continuity errors : sum local = 1.07475e-07, global = -4.86383e-19, cumulative = 1.28754e-17
DICPCG:  Solving for p, Initial residual = 0.00309444, Final residual = 9.96708e-07, No Iterations 110
time step continuity errors : sum local = 1.19678e-09, global = 2.4791e-19, cumulative = 1.31233e-17
ExecutionTime = 1.52 s  ClockTime = 3 s

Time = 0.9825

Courant Number mean: 0.448105 max: 1.92644
smoothSolver:  Solving for Ux, Initial residual = 0.000658567, Final residual = 7.18297e-06, No Iterations 8
smoothSolver:  Solving for Uy, Initial residual = 0.00101408, Final residual = 6.56064e-06, No Iterations 9
DICPCG:  Solving for p, Initial residual = 0.00335849, Final residual = 9.43792e-05, No Iterations 40
time step continuity errors : sum local = 1.16899e-07, global = -5.49371e-20, cumulative = 1.30684e-17
DICPCG:  Solving for p, Initial residual = 0.00285151, Final residual = 9.83282e-07, No Iterations 109
time step continuity errors : sum local = 1.18266e-09, global = 2.59428e-19, cumulative = 1.33278e-17
ExecutionTime = 1.56 s  ClockTime = 3 s

Time = 0.985

Courant Number mean: 0.448129 max: 1.92634
smoothSolver:  Solving for Ux, Initial residual = 0.000638531, Final residual = 6.97662e-06, No Iterations 8
smoothSolver:  Solving for Uy, Initial residual = 0.000975111, Final residual = 6.30879e-06, No Iterations 9
DICPCG:  Solving for p, Initial residual = 0.00326613, Final residual = 9.15267e-05, No Iterations 32
time step continuity errors : sum local = 1.24251e-07, global = -7.72336e-19, cumulative = 1.25555e-17
DICPCG:  Solving for p, Initial residual = 0.00277314, Final residual = 9.13057e-07, No Iterations 109
time step continuity errors : sum local = 1.0974e-09, global = 7.60945e-20, cumulative = 1.26316e-17
ExecutionTime = 1.58 s  ClockTime = 4 s

Time = 0.9875

Courant Number mean: 0.448157 max: 1.92624
smoothSolver:  Solving for Ux, Initial residual = 0.000618487, Final residual = 6.75572e-06, No Iterations 8
smoothSolver:  Solving for Uy, Initial residual = 0.0009424, Final residual = 6.10193e-06, No Iterations 9
DICPCG:  Solving for p, Initial residual = 0.00317673, Final residual = 8.81233e-05, No Iterations 78
time step continuity errors : sum local = 1.05954e-07, global = 3.5235e-19, cumulative = 1.29839e-17
DICPCG:  Solving for p, Initial residual = 0.00269327, Final residual = 9.92422e-07, No Iterations 100
time step continuity errors : sum local = 1.19337e-09, global = 1.80116e-19, cumulative = 1.3164e-17
ExecutionTime = 1.61 s  ClockTime = 4 s

Time = 0.99

Courant Number mean: 0.448188 max: 1.92615
smoothSolver:  Solving for Ux, Initial residual = 0.000597207, Final residual = 6.53541e-06, No Iterations 8
smoothSolver:  Solving for Uy, Initial residual = 0.000902431, Final residual = 5.84554e-06, No Iterations 9
DICPCG:  Solving for p, Initial residual = 0.00292161, Final residual = 8.19955e-05, No Iterations 30
time step continuity errors : sum local = 1.01487e-07, global = -5.07636e-19, cumulative = 1.26564e-17
DICPCG:  Solving for p, Initial residual = 0.00247823, Final residual = 8.75738e-07, No Iterations 109
time step continuity errors : sum local = 1.05104e-09, global = 7.05808e-20, cumulative = 1.2727e-17
ExecutionTime = 1.64 s  ClockTime = 4 s

Time = 0.9925

Courant Number mean: 0.448223 max: 1.92606
smoothSolver:  Solving for Ux, Initial residual = 0.000579401, Final residual = 6.34787e-06, No Iterations 8
smoothSolver:  Solving for Uy, Initial residual = 0.000868619, Final residual = 9.85304e-06, No Iterations 8
DICPCG:  Solving for p, Initial residual = 0.00276441, Final residual = 7.92241e-05, No Iterations 41
time step continuity errors : sum local = 1.08225e-07, global = 4.17163e-19, cumulative = 1.31441e-17
DICPCG:  Solving for p, Initial residual = 0.00233856, Final residual = 9.11139e-07, No Iterations 109
time step continuity errors : sum local = 1.09472e-09, global = 2.2772e-19, cumulative = 1.33719e-17
ExecutionTime = 1.66 s  ClockTime = 4 s

Time = 0.995

Courant Number mean: 0.448262 max: 1.92596
smoothSolver:  Solving for Ux, Initial residual = 0.000562678, Final residual = 6.17131e-06, No Iterations 8
smoothSolver:  Solving for Uy, Initial residual = 0.000836008, Final residual = 9.47533e-06, No Iterations 8
DICPCG:  Solving for p, Initial residual = 0.00269768, Final residual = 6.43143e-05, No Iterations 79
time step continuity errors : sum local = 7.73191e-08, global = 2.56451e-19, cumulative = 1.36283e-17
DICPCG:  Solving for p, Initial residual = 0.00227335, Final residual = 9.2081e-07, No Iterations 106
time step continuity errors : sum local = 1.10582e-09, global = 4.43417e-19, cumulative = 1.40717e-17
ExecutionTime = 1.69 s  ClockTime = 4 s

Time = 0.9975

Courant Number mean: 0.448303 max: 1.92587
smoothSolver:  Solving for Ux, Initial residual = 0.000543868, Final residual = 5.97114e-06, No Iterations 8
smoothSolver:  Solving for Uy, Initial residual = 0.000802957, Final residual = 9.11715e-06, No Iterations 8
DICPCG:  Solving for p, Initial residual = 0.00247818, Final residual = 6.96495e-05, No Iterations 40
time step continuity errors : sum local = 8.5976e-08, global = 3.4822e-19, cumulative = 1.44199e-17
DICPCG:  Solving for p, Initial residual = 0.00209585, Final residual = 9.24403e-07, No Iterations 109
time step continuity errors : sum local = 1.11159e-09, global = -3.56933e-19, cumulative = 1.4063e-17
ExecutionTime = 1.72 s  ClockTime = 4 s

Time = 1

Courant Number mean: 0.448348 max: 1.92579
smoothSolver:  Solving for Ux, Initial residual = 0.000527675, Final residual = 5.80269e-06, No Iterations 8
smoothSolver:  Solving for Uy, Initial residual = 0.00077325, Final residual = 8.78172e-06, No Iterations 8
DICPCG:  Solving for p, Initial residual = 0.00241565, Final residual = 6.84025e-05, No Iterations 37
time step continuity errors : sum local = 9.16694e-08, global = -2.04626e-19, cumulative = 1.38584e-17
DICPCG:  Solving for p, Initial residual = 0.00204155, Final residual = 8.60907e-07, No Iterations 109
time step continuity errors : sum local = 1.03319e-09, global = 8.91122e-20, cumulative = 1.39475e-17
ExecutionTime = 1.74 s  ClockTime = 4 s

Time = 1.0025

Courant Number mean: 0.448395 max: 1.9257
smoothSolver:  Solving for Ux, Initial residual = 0.000513559, Final residual = 9.92876e-06, No Iterations 7
smoothSolver:  Solving for Uy, Initial residual = 0.000745155, Final residual = 8.46565e-06, No Iterations 8
DICPCG:  Solving for p, Initial residual = 0.00237774, Final residual = 5.74036e-05, No Iterations 79
time step continuity errors : sum local = 6.90963e-08, global = 2.16857e-19, cumulative = 1.41643e-17
DICPCG:  Solving for p, Initial residual = 0.00201519, Final residual = 9.8524e-07, No Iterations 111
time step continuity errors : sum local = 1.18642e-09, global = -9.17492e-20, cumulative = 1.40726e-17
ExecutionTime = 1.77 s  ClockTime = 4 s

Time = 1.005

Courant Number mean: 0.448446 max: 1.92562
smoothSolver:  Solving for Ux, Initial residual = 0.000497379, Final residual = 9.62897e-06, No Iterations 7
smoothSolver:  Solving for Uy, Initial residual = 0.000717264, Final residual = 8.15686e-06, No Iterations 8
DICPCG:  Solving for p, Initial residual = 0.0022072, Final residual = 5.82555e-05, No Iterations 40
time step continuity errors : sum local = 7.35188e-08, global = -6.69323e-19, cumulative = 1.34033e-17
DICPCG:  Solving for p, Initial residual = 0.0018747, Final residual = 8.37566e-07, No Iterations 110
time step continuity errors : sum local = 1.00877e-09, global = 2.38657e-19, cumulative = 1.36419e-17
ExecutionTime = 1.8 s  ClockTime = 4 s

Time = 1.0075

Courant Number mean: 0.4485 max: 1.92554
smoothSolver:  Solving for Ux, Initial residual = 0.000483959, Final residual = 9.3826e-06, No Iterations 7
smoothSolver:  Solving for Uy, Initial residual = 0.000691068, Final residual = 7.86108e-06, No Iterations 8
DICPCG:  Solving for p, Initial residual = 0.00214384, Final residual = 6.18174e-05, No Iterations 25
time step continuity errors : sum local = 8.13829e-08, global = -4.41378e-21, cumulative = 1.36375e-17
DICPCG:  Solving for p, Initial residual = 0.00180335, Final residual = 9.45754e-07, No Iterations 99
time step continuity errors : sum local = 1.13961e-09, global = -2.86642e-19, cumulative = 1.33509e-17
ExecutionTime = 1.82 s  ClockTime = 4 s

Time = 1.01

Courant Number mean: 0.448557 max: 1.92546
smoothSolver:  Solving for Ux, Initial residual = 0.000469814, Final residual = 9.11147e-06, No Iterations 7
smoothSolver:  Solving for Uy, Initial residual = 0.000668847, Final residual = 7.61572e-06, No Iterations 8
DICPCG:  Solving for p, Initial residual = 0.00205747, Final residual = 6.16243e-05, No Iterations 78
time step continuity errors : sum local = 7.41738e-08, global = -2.01464e-20, cumulative = 1.33307e-17
DICPCG:  Solving for p, Initial residual = 0.00174057, Final residual = 9.41947e-07, No Iterations 109
time step continuity errors : sum local = 1.13254e-09, global = 2.46539e-20, cumulative = 1.33554e-17
ExecutionTime = 1.84 s  ClockTime = 4 s

Time = 1.0125

Courant Number mean: 0.448617 max: 1.92538
smoothSolver:  Solving for Ux, Initial residual = 0.000457742, Final residual = 8.89811e-06, No Iterations 7
smoothSolver:  Solving for Uy, Initial residual = 0.00064302, Final residual = 7.32757e-06, No Iterations 8
DICPCG:  Solving for p, Initial residual = 0.00195382, Final residual = 5.6391e-05, No Iterations 37
time step continuity errors : sum local = 6.98095e-08, global = -4.05376e-19, cumulative = 1.295e-17
DICPCG:  Solving for p, Initial residual = 0.00166547, Final residual = 8.91984e-07, No Iterations 110
time step continuity errors : sum local = 1.07346e-09, global = -1.99584e-19, cumulative = 1.27504e-17
ExecutionTime = 1.86 s  ClockTime = 4 s

Time = 1.015

Courant Number mean: 0.448678 max: 1.9253
smoothSolver:  Solving for Ux, Initial residual = 0.000445295, Final residual = 8.66822e-06, No Iterations 7
smoothSolver:  Solving for Uy, Initial residual = 0.00062015, Final residual = 7.07308e-06, No Iterations 8
DICPCG:  Solving for p, Initial residual = 0.00192087, Final residual = 5.73212e-05, No Iterations 37
time step continuity errors : sum local = 7.504e-08, global = 4.24956e-19, cumulative = 1.31754e-17
DICPCG:  Solving for p, Initial residual = 0.00164323, Final residual = 8.39308e-07, No Iterations 110
time step continuity errors : sum local = 1.011e-09, global = -1.62092e-19, cumulative = 1.30133e-17
ExecutionTime = 1.9 s  ClockTime = 4 s

Time = 1.0175

Courant Number mean: 0.448742 max: 1.92523
smoothSolver:  Solving for Ux, Initial residual = 0.000435487, Final residual = 8.48748e-06, No Iterations 7
smoothSolver:  Solving for Uy, Initial residual = 0.00059805, Final residual = 6.82235e-06, No Iterations 8
DICPCG:  Solving for p, Initial residual = 0.001852, Final residual = 4.62387e-05, No Iterations 79
time step continuity errors : sum local = 5.54975e-08, global = 1.18147e-19, cumulative = 1.31314e-17
DICPCG:  Solving for p, Initial residual = 0.00157196, Final residual = 9.65955e-07, No Iterations 111
time step continuity errors : sum local = 1.16093e-09, global = -2.06685e-19, cumulative = 1.29248e-17
ExecutionTime = 1.95 s  ClockTime = 4 s

Time = 1.02

Courant Number mean: 0.448808 max: 1.92516
smoothSolver:  Solving for Ux, Initial residual = 0.000422623, Final residual = 8.24858e-06, No Iterations 7
smoothSolver:  Solving for Uy, Initial residual = 0.000578993, Final residual = 6.61788e-06, No Iterations 8
DICPCG:  Solving for p, Initial residual = 0.00174507, Final residual = 5.12565e-05, No Iterations 39
time step continuity errors : sum local = 6.43212e-08, global = -6.16436e-19, cumulative = 1.23083e-17
DICPCG:  Solving for p, Initial residual = 0.00148069, Final residual = 8.99246e-07, No Iterations 110
time step continuity errors : sum local = 1.08222e-09, global = 1.50554e-19, cumulative = 1.24589e-17
ExecutionTime = 1.98 s  ClockTime = 4 s

Time = 1.0225

Courant Number mean: 0.448876 max: 1.92509
smoothSolver:  Solving for Ux, Initial residual = 0.000412673, Final residual = 8.06694e-06, No Iterations 7
smoothSolver:  Solving for Uy, Initial residual = 0.000558736, Final residual = 6.38928e-06, No Iterations 8
DICPCG:  Solving for p, Initial residual = 0.0016996, Final residual = 5.08517e-05, No Iterations 26
time step continuity errors : sum local = 6.75069e-08, global = -5.15929e-19, cumulative = 1.19429e-17
DICPCG:  Solving for p, Initial residual = 0.00143128, Final residual = 9.82123e-07, No Iterations 98
time step continuity errors : sum local = 1.18306e-09, global = -1.68738e-20, cumulative = 1.19261e-17
ExecutionTime = 2 s  ClockTime = 4 s

Time = 1.025

Courant Number mean: 0.448946 max: 1.92503
smoothSolver:  Solving for Ux, Initial residual = 0.000401157, Final residual = 7.84371e-06, No Iterations 7
smoothSolver:  Solving for Uy, Initial residual = 0.00054427, Final residual = 6.23047e-06, No Iterations 8
DICPCG:  Solving for p, Initial residual = 0.00165424, Final residual = 4.55496e-05, No Iterations 78
time step continuity errors : sum local = 5.47092e-08, global = -6.50048e-21, cumulative = 1.19196e-17
DICPCG:  Solving for p, Initial residual = 0.00139672, Final residual = 8.81959e-07, No Iterations 109
time step continuity errors : sum local = 1.05891e-09, global = 2.75395e-19, cumulative = 1.2195e-17
ExecutionTime = 2.04 s  ClockTime = 4 s

Time = 1.0275

Courant Number mean: 0.449019 max: 1.92496
smoothSolver:  Solving for Ux, Initial residual = 0.000392239, Final residual = 7.68996e-06, No Iterations 7
smoothSolver:  Solving for Uy, Initial residual = 0.000523945, Final residual = 6.00456e-06, No Iterations 8
DICPCG:  Solving for p, Initial residual = 0.00155593, Final residual = 4.35568e-05, No Iterations 39
time step continuity errors : sum local = 5.36001e-08, global = -2.8899e-19, cumulative = 1.1906e-17
DICPCG:  Solving for p, Initial residual = 0.00132052, Final residual = 7.8298e-07, No Iterations 110
time step continuity errors : sum local = 9.43243e-10, global = -6.45453e-20, cumulative = 1.18414e-17
ExecutionTime = 2.07 s  ClockTime = 4 s

Time = 1.03

Courant Number mean: 0.449094 max: 1.9249
smoothSolver:  Solving for Ux, Initial residual = 0.000382319, Final residual = 7.50676e-06, No Iterations 7
smoothSolver:  Solving for Uy, Initial residual = 0.000506963, Final residual = 5.81537e-06, No Iterations 8
DICPCG:  Solving for p, Initial residual = 0.00152716, Final residual = 4.54987e-05, No Iterations 38
time step continuity errors : sum local = 5.90776e-08, global = 1.398e-19, cumulative = 1.19812e-17
DICPCG:  Solving for p, Initial residual = 0.00130079, Final residual = 9.22951e-07, No Iterations 109
time step continuity errors : sum local = 1.11008e-09, global = -1.97503e-19, cumulative = 1.17837e-17
ExecutionTime = 2.09 s  ClockTime = 4 s

Time = 1.0325

Courant Number mean: 0.44917 max: 1.92484
smoothSolver:  Solving for Ux, Initial residual = 0.000374773, Final residual = 7.36733e-06, No Iterations 7
smoothSolver:  Solving for Uy, Initial residual = 0.000489767, Final residual = 9.81997e-06, No Iterations 7
DICPCG:  Solving for p, Initial residual = 0.00143418, Final residual = 4.25737e-05, No Iterations 78
time step continuity errors : sum local = 5.12459e-08, global = 3.87325e-19, cumulative = 1.2171e-17
DICPCG:  Solving for p, Initial residual = 0.00120873, Final residual = 9.70715e-07, No Iterations 97
time step continuity errors : sum local = 1.17331e-09, global = 4.42811e-19, cumulative = 1.26139e-17
ExecutionTime = 2.11 s  ClockTime = 4 s

Time = 1.035

Courant Number mean: 0.449247 max: 1.92478
smoothSolver:  Solving for Ux, Initial residual = 0.000364594, Final residual = 7.17813e-06, No Iterations 7
smoothSolver:  Solving for Uy, Initial residual = 0.000476356, Final residual = 9.56668e-06, No Iterations 7
DICPCG:  Solving for p, Initial residual = 0.00136154, Final residual = 3.98472e-05, No Iterations 36
time step continuity errors : sum local = 4.81112e-08, global = 6.68239e-20, cumulative = 1.26807e-17
DICPCG:  Solving for p, Initial residual = 0.00115268, Final residual = 9.93761e-07, No Iterations 108
time step continuity errors : sum local = 1.19687e-09, global = 1.38911e-19, cumulative = 1.28196e-17
ExecutionTime = 2.13 s  ClockTime = 5 s

Time = 1.0375

Courant Number mean: 0.449325 max: 1.92472
smoothSolver:  Solving for Ux, Initial residual = 0.000356608, Final residual = 7.03344e-06, No Iterations 7
smoothSolver:  Solving for Uy, Initial residual = 0.000460731, Final residual = 9.26159e-06, No Iterations 7
DICPCG:  Solving for p, Initial residual = 0.00133567, Final residual = 3.67765e-05, No Iterations 31
time step continuity errors : sum local = 4.74503e-08, global = -1.25492e-19, cumulative = 1.26941e-17
DICPCG:  Solving for p, Initial residual = 0.00112306, Final residual = 9.48274e-07, No Iterations 106
time step continuity errors : sum local = 1.14108e-09, global = -2.68591e-19, cumulative = 1.24255e-17
ExecutionTime = 2.15 s  ClockTime = 5 s

Time = 1.04

Courant Number mean: 0.449405 max: 1.92467
smoothSolver:  Solving for Ux, Initial residual = 0.00034776, Final residual = 6.86508e-06, No Iterations 7
smoothSolver:  Solving for Uy, Initial residual = 0.000449105, Final residual = 9.03646e-06, No Iterations 7
DICPCG:  Solving for p, Initial residual = 0.00128204, Final residual = 3.2074e-05, No Iterations 43
time step continuity errors : sum local = 4.60466e-08, global = -4.10605e-19, cumulative = 1.20149e-17
DICPCG:  Solving for p, Initial residual = 0.00107261, Final residual = 9.82748e-07, No Iterations 106
time step continuity errors : sum local = 1.17781e-09, global = 1.66701e-19, cumulative = 1.21816e-17
ExecutionTime = 2.18 s  ClockTime = 5 s

Time = 1.0425

Courant Number mean: 0.449486 max: 1.92462
smoothSolver:  Solving for Ux, Initial residual = 0.000341959, Final residual = 6.75932e-06, No Iterations 7
smoothSolver:  Solving for Uy, Initial residual = 0.000433601, Final residual = 8.72341e-06, No Iterations 7
DICPCG:  Solving for p, Initial residual = 0.00125777, Final residual = 3.56753e-05, No Iterations 78
time step continuity errors : sum local = 4.28517e-08, global = 9.87828e-20, cumulative = 1.22804e-17
DICPCG:  Solving for p, Initial residual = 0.00105876, Final residual = 9.26617e-07, No Iterations 106
time step continuity errors : sum local = 1.11731e-09, global = 2.15516e-19, cumulative = 1.24959e-17
ExecutionTime = 2.21 s  ClockTime = 5 s

Time = 1.045

Courant Number mean: 0.449569 max: 1.92457
smoothSolver:  Solving for Ux, Initial residual = 0.000332512, Final residual = 6.58509e-06, No Iterations 7
smoothSolver:  Solving for Uy, Initial residual = 0.00042238, Final residual = 8.5164e-06, No Iterations 7
DICPCG:  Solving for p, Initial residual = 0.0011933, Final residual = 3.5342e-05, No Iterations 38
time step continuity errors : sum local = 4.33675e-08, global = 6.62314e-19, cumulative = 1.31582e-17
DICPCG:  Solving for p, Initial residual = 0.0010077, Final residual = 8.04404e-07, No Iterations 96
time step continuity errors : sum local = 9.64836e-10, global = -3.83592e-19, cumulative = 1.27746e-17
ExecutionTime = 2.23 s  ClockTime = 5 s

Time = 1.0475

Courant Number mean: 0.449653 max: 1.92452
smoothSolver:  Solving for Ux, Initial residual = 0.000325867, Final residual = 6.46397e-06, No Iterations 7
smoothSolver:  Solving for Uy, Initial residual = 0.000409351, Final residual = 8.26172e-06, No Iterations 7
DICPCG:  Solving for p, Initial residual = 0.00116762, Final residual = 3.47317e-05, No Iterations 34
time step continuity errors : sum local = 4.60504e-08, global = -4.97634e-19, cumulative = 1.2277e-17
DICPCG:  Solving for p, Initial residual = 0.000985127, Final residual = 8.73442e-07, No Iterations 106
time step continuity errors : sum local = 1.04994e-09, global = -4.85879e-19, cumulative = 1.17911e-17
ExecutionTime = 2.25 s  ClockTime = 5 s

Time = 1.05

Courant Number mean: 0.449738 max: 1.92447
smoothSolver:  Solving for Ux, Initial residual = 0.000317789, Final residual = 6.30851e-06, No Iterations 7
smoothSolver:  Solving for Uy, Initial residual = 0.000399994, Final residual = 8.07986e-06, No Iterations 7
DICPCG:  Solving for p, Initial residual = 0.00114885, Final residual = 3.43623e-05, No Iterations 77
time step continuity errors : sum local = 4.13153e-08, global = -2.2081e-19, cumulative = 1.15703e-17
DICPCG:  Solving for p, Initial residual = 0.000964556, Final residual = 9.85642e-07, No Iterations 106
time step continuity errors : sum local = 1.18072e-09, global = -5.98081e-20, cumulative = 1.15105e-17
ExecutionTime = 2.27 s  ClockTime = 5 s

Time = 1.0525

Courant Number mean: 0.449825 max: 1.92443
smoothSolver:  Solving for Ux, Initial residual = 0.000311268, Final residual = 6.19218e-06, No Iterations 7
smoothSolver:  Solving for Uy, Initial residual = 0.000388235, Final residual = 7.85256e-06, No Iterations 7
DICPCG:  Solving for p, Initial residual = 0.00107749, Final residual = 3.18375e-05, No Iterations 38
time step continuity errors : sum local = 3.9386e-08, global = -2.25321e-19, cumulative = 1.12852e-17
DICPCG:  Solving for p, Initial residual = 0.000909491, Final residual = 9.82901e-07, No Iterations 98
time step continuity errors : sum local = 1.18155e-09, global = 5.48901e-19, cumulative = 1.18341e-17
ExecutionTime = 2.29 s  ClockTime = 5 s

Time = 1.055

Courant Number mean: 0.449913 max: 1.92438
smoothSolver:  Solving for Ux, Initial residual = 0.000304847, Final residual = 6.07367e-06, No Iterations 7
smoothSolver:  Solving for Uy, Initial residual = 0.000377314, Final residual = 7.63895e-06, No Iterations 7
DICPCG:  Solving for p, Initial residual = 0.00106509, Final residual = 3.07526e-05, No Iterations 36
time step continuity errors : sum local = 3.82555e-08, global = -4.18757e-19, cumulative = 1.14153e-17
DICPCG:  Solving for p, Initial residual = 0.000900758, Final residual = 8.11483e-07, No Iterations 106
time step continuity errors : sum local = 9.74704e-10, global = -6.64714e-19, cumulative = 1.07506e-17
ExecutionTime = 2.32 s  ClockTime = 5 s

Time = 1.0575

Courant Number mean: 0.450002 max: 1.92434
smoothSolver:  Solving for Ux, Initial residual = 0.000299181, Final residual = 5.96888e-06, No Iterations 7
smoothSolver:  Solving for Uy, Initial residual = 0.000366533, Final residual = 7.42849e-06, No Iterations 7
DICPCG:  Solving for p, Initial residual = 0.00103652, Final residual = 3.08908e-05, No Iterations 34
time step continuity errors : sum local = 4.36019e-08, global = -5.23021e-19, cumulative = 1.02276e-17
DICPCG:  Solving for p, Initial residual = 0.000876236, Final residual = 9.69183e-07, No Iterations 95
time step continuity errors : sum local = 1.16098e-09, global = 3.8377e-20, cumulative = 1.0266e-17
ExecutionTime = 2.35 s  ClockTime = 5 s

Time = 1.06

Courant Number mean: 0.450092 max: 1.9243
smoothSolver:  Solving for Ux, Initial residual = 0.000291252, Final residual = 5.81401e-06, No Iterations 7
smoothSolver:  Solving for Uy, Initial residual = 0.000360258, Final residual = 7.30556e-06, No Iterations 7
DICPCG:  Solving for p, Initial residual = 0.00102754, Final residual = 2.93869e-05, No Iterations 68
time step continuity errors : sum local = 3.5355e-08, global = 5.40149e-19, cumulative = 1.08061e-17
DICPCG:  Solving for p, Initial residual = 0.000866591, Final residual = 8.50856e-07, No Iterations 105
time step continuity errors : sum local = 1.02451e-09, global = -3.97336e-19, cumulative = 1.04088e-17
ExecutionTime = 2.38 s  ClockTime = 5 s

Time = 1.0625

Courant Number mean: 0.450184 max: 1.92426
smoothSolver:  Solving for Ux, Initial residual = 0.000286185, Final residual = 5.72682e-06, No Iterations 7
smoothSolver:  Solving for Uy, Initial residual = 0.000348644, Final residual = 7.08162e-06, No Iterations 7
DICPCG:  Solving for p, Initial residual = 0.000967893, Final residual = 2.89088e-05, No Iterations 41
time step continuity errors : sum local = 3.72456e-08, global = 4.13729e-19, cumulative = 1.08225e-17
DICPCG:  Solving for p, Initial residual = 0.000813642, Final residual = 7.70764e-07, No Iterations 106
time step continuity errors : sum local = 9.26643e-10, global = -5.08785e-19, cumulative = 1.03137e-17
ExecutionTime = 2.4 s  ClockTime = 5 s

Time = 1.065

Courant Number mean: 0.450276 max: 1.92422
smoothSolver:  Solving for Ux, Initial residual = 0.000280124, Final residual = 9.80419e-06, No Iterations 6
smoothSolver:  Solving for Uy, Initial residual = 0.000341007, Final residual = 6.93228e-06, No Iterations 7
DICPCG:  Solving for p, Initial residual = 0.00095786, Final residual = 2.5886e-05, No Iterations 43
time step continuity errors : sum local = 3.80818e-08, global = -6.87206e-20, cumulative = 1.0245e-17
DICPCG:  Solving for p, Initial residual = 0.000806864, Final residual = 8.18145e-07, No Iterations 106
time step continuity errors : sum local = 9.82073e-10, global = 9.49513e-21, cumulative = 1.02545e-17
ExecutionTime = 2.42 s  ClockTime = 5 s

Time = 1.0675

Courant Number mean: 0.450368 max: 1.92419
smoothSolver:  Solving for Ux, Initial residual = 0.000276581, Final residual = 9.68456e-06, No Iterations 6
smoothSolver:  Solving for Uy, Initial residual = 0.000330693, Final residual = 6.7223e-06, No Iterations 7
DICPCG:  Solving for p, Initial residual = 0.000939669, Final residual = 2.44991e-05, No Iterations 79
time step continuity errors : sum local = 2.95432e-08, global = -3.53306e-19, cumulative = 9.90119e-18
DICPCG:  Solving for p, Initial residual = 0.000797081, Final residual = 9.92278e-07, No Iterations 95
time step continuity errors : sum local = 1.1916e-09, global = 1.4644e-20, cumulative = 9.91583e-18
ExecutionTime = 2.45 s  ClockTime = 5 s

Time = 1.07

Courant Number mean: 0.450462 max: 1.92416
smoothSolver:  Solving for Ux, Initial residual = 0.000269354, Final residual = 9.4469e-06, No Iterations 6
smoothSolver:  Solving for Uy, Initial residual = 0.000324281, Final residual = 6.60759e-06, No Iterations 7
DICPCG:  Solving for p, Initial residual = 0.000895489, Final residual = 2.47121e-05, No Iterations 39
time step continuity errors : sum local = 3.10564e-08, global = -1.26953e-19, cumulative = 9.78888e-18
DICPCG:  Solving for p, Initial residual = 0.000755512, Final residual = 8.53931e-07, No Iterations 106
time step continuity errors : sum local = 1.02829e-09, global = -4.38629e-20, cumulative = 9.74502e-18
ExecutionTime = 2.47 s  ClockTime = 5 s

Time = 1.0725

Courant Number mean: 0.450555 max: 1.92412
smoothSolver:  Solving for Ux, Initial residual = 0.000264653, Final residual = 9.29287e-06, No Iterations 6
smoothSolver:  Solving for Uy, Initial residual = 0.000316156, Final residual = 6.44873e-06, No Iterations 7
DICPCG:  Solving for p, Initial residual = 0.000865235, Final residual = 2.46466e-05, No Iterations 36
time step continuity errors : sum local = 3.29353e-08, global = 4.99863e-21, cumulative = 9.75001e-18
DICPCG:  Solving for p, Initial residual = 0.00073443, Final residual = 7.96802e-07, No Iterations 95
time step continuity errors : sum local = 9.54972e-10, global = -1.28886e-19, cumulative = 9.62113e-18
ExecutionTime = 2.49 s  ClockTime = 5 s

Time = 1.075

Courant Number mean: 0.45065 max: 1.92409
smoothSolver:  Solving for Ux, Initial residual = 0.000258672, Final residual = 9.09236e-06, No Iterations 6
smoothSolver:  Solving for Uy, Initial residual = 0.000310479, Final residual = 6.33757e-06, No Iterations 7
DICPCG:  Solving for p, Initial residual = 0.000863268, Final residual = 2.19695e-05, No Iterations 78
time step continuity errors : sum local = 2.63356e-08, global = -3.3953e-19, cumulative = 9.2816e-18
DICPCG:  Solving for p, Initial residual = 0.000731946, Final residual = 7.36726e-07, No Iterations 106
time step continuity errors : sum local = 8.8362e-10, global = -1.90772e-19, cumulative = 9.09083e-18
ExecutionTime = 2.53 s  ClockTime = 5 s

Time = 1.0775

Courant Number mean: 0.450744 max: 1.92406
smoothSolver:  Solving for Ux, Initial residual = 0.000254059, Final residual = 8.94564e-06, No Iterations 6
smoothSolver:  Solving for Uy, Initial residual = 0.000302555, Final residual = 6.18408e-06, No Iterations 7
DICPCG:  Solving for p, Initial residual = 0.000814225, Final residual = 2.29528e-05, No Iterations 39
time step continuity errors : sum local = 2.80914e-08, global = -4.87925e-19, cumulative = 8.6029e-18
DICPCG:  Solving for p, Initial residual = 0.000689929, Final residual = 9.19192e-07, No Iterations 105
time step continuity errors : sum local = 1.10329e-09, global = 5.62657e-19, cumulative = 9.16556e-18
ExecutionTime = 2.56 s  ClockTime = 6 s

Time = 1.08

Courant Number mean: 0.450839 max: 1.92403
smoothSolver:  Solving for Ux, Initial residual = 0.000249334, Final residual = 8.78871e-06, No Iterations 6
smoothSolver:  Solving for Uy, Initial residual = 0.000296068, Final residual = 6.05912e-06, No Iterations 7
DICPCG:  Solving for p, Initial residual = 0.000791852, Final residual = 2.16227e-05, No Iterations 39
time step continuity errors : sum local = 2.80668e-08, global = -1.29463e-19, cumulative = 9.03609e-18
DICPCG:  Solving for p, Initial residual = 0.000672896, Final residual = 9.81508e-07, No Iterations 94
time step continuity errors : sum local = 1.17529e-09, global = -3.63331e-19, cumulative = 8.67276e-18
ExecutionTime = 2.58 s  ClockTime = 6 s

Time = 1.0825

Courant Number mean: 0.450935 max: 1.92401
smoothSolver:  Solving for Ux, Initial residual = 0.000245298, Final residual = 8.65368e-06, No Iterations 6
smoothSolver:  Solving for Uy, Initial residual = 0.000289014, Final residual = 5.91901e-06, No Iterations 7
DICPCG:  Solving for p, Initial residual = 0.000769502, Final residual = 2.26309e-05, No Iterations 76
time step continuity errors : sum local = 2.73615e-08, global = -6.0022e-20, cumulative = 8.61274e-18
DICPCG:  Solving for p, Initial residual = 0.000653174, Final residual = 9.51022e-07, No Iterations 105
time step continuity errors : sum local = 1.14516e-09, global = -6.13774e-20, cumulative = 8.55136e-18
ExecutionTime = 2.6 s  ClockTime = 6 s

Time = 1.085

Courant Number mean: 0.45103 max: 1.92398
smoothSolver:  Solving for Ux, Initial residual = 0.000239967, Final residual = 8.4776e-06, No Iterations 6
smoothSolver:  Solving for Uy, Initial residual = 0.000283847, Final residual = 5.82043e-06, No Iterations 7
DICPCG:  Solving for p, Initial residual = 0.000746493, Final residual = 1.94744e-05, No Iterations 40
time step continuity errors : sum local = 2.39555e-08, global = 4.8044e-20, cumulative = 8.59941e-18
DICPCG:  Solving for p, Initial residual = 0.000630479, Final residual = 8.31648e-07, No Iterations 64
time step continuity errors : sum local = 1.1913e-09, global = -2.33905e-19, cumulative = 8.3655e-18
ExecutionTime = 2.62 s  ClockTime = 6 s

Time = 1.0875

Courant Number mean: 0.451126 max: 1.92395
smoothSolver:  Solving for Ux, Initial residual = 0.000235859, Final residual = 8.34172e-06, No Iterations 6
smoothSolver:  Solving for Uy, Initial residual = 0.000277841, Final residual = 9.93366e-06, No Iterations 6
DICPCG:  Solving for p, Initial residual = 0.000695317, Final residual = 2.07027e-05, No Iterations 38
time step continuity errors : sum local = 2.62279e-08, global = -2.04573e-19, cumulative = 8.16093e-18
DICPCG:  Solving for p, Initial residual = 0.000584406, Final residual = 7.08895e-07, No Iterations 105
time step continuity errors : sum local = 8.50133e-10, global = -1.38172e-19, cumulative = 8.02276e-18
ExecutionTime = 2.64 s  ClockTime = 6 s

Time = 1.09

Courant Number mean: 0.451221 max: 1.92393
smoothSolver:  Solving for Ux, Initial residual = 0.000231446, Final residual = 8.19465e-06, No Iterations 6
smoothSolver:  Solving for Uy, Initial residual = 0.000272523, Final residual = 9.75089e-06, No Iterations 6
DICPCG:  Solving for p, Initial residual = 0.000691055, Final residual = 2.06636e-05, No Iterations 37
time step continuity errors : sum local = 2.5994e-08, global = -1.51582e-19, cumulative = 7.87117e-18
DICPCG:  Solving for p, Initial residual = 0.000582317, Final residual = 6.73264e-07, No Iterations 105
time step continuity errors : sum local = 8.0667e-10, global = -1.16313e-19, cumulative = 7.75486e-18
ExecutionTime = 2.68 s  ClockTime = 6 s

Time = 1.0925

Courant Number mean: 0.451316 max: 1.92391
smoothSolver:  Solving for Ux, Initial residual = 0.000227973, Final residual = 8.07922e-06, No Iterations 6
smoothSolver:  Solving for Uy, Initial residual = 0.000266371, Final residual = 9.53965e-06, No Iterations 6
DICPCG:  Solving for p, Initial residual = 0.000670814, Final residual = 1.89767e-05, No Iterations 77
time step continuity errors : sum local = 2.28065e-08, global = -4.3946e-19, cumulative = 7.3154e-18
DICPCG:  Solving for p, Initial residual = 0.000562812, Final residual = 7.14846e-07, No Iterations 105
time step continuity errors : sum local = 8.59631e-10, global = 7.48233e-19, cumulative = 8.06363e-18
ExecutionTime = 2.7 s  ClockTime = 6 s

Time = 1.095

Courant Number mean: 0.451411 max: 1.92388
smoothSolver:  Solving for Ux, Initial residual = 0.000222984, Final residual = 7.91341e-06, No Iterations 6
smoothSolver:  Solving for Uy, Initial residual = 0.000262305, Final residual = 9.404e-06, No Iterations 6
DICPCG:  Solving for p, Initial residual = 0.000642335, Final residual = 1.89808e-05, No Iterations 40
time step continuity errors : sum local = 2.34685e-08, global = -6.77639e-20, cumulative = 7.99587e-18
DICPCG:  Solving for p, Initial residual = 0.000538828, Final residual = 9.67784e-07, No Iterations 64
time step continuity errors : sum local = 1.45563e-09, global = -5.64465e-19, cumulative = 7.4314e-18
ExecutionTime = 2.73 s  ClockTime = 6 s

Time = 1.0975

Courant Number mean: 0.451506 max: 1.92386
smoothSolver:  Solving for Ux, Initial residual = 0.000219374, Final residual = 7.79472e-06, No Iterations 6
smoothSolver:  Solving for Uy, Initial residual = 0.000257217, Final residual = 9.22946e-06, No Iterations 6
DICPCG:  Solving for p, Initial residual = 0.000626324, Final residual = 1.84852e-05, No Iterations 38
time step continuity errors : sum local = 2.3335e-08, global = -1.75502e-19, cumulative = 7.2559e-18
DICPCG:  Solving for p, Initial residual = 0.000528744, Final residual = 9.9489e-07, No Iterations 94
time step continuity errors : sum local = 1.19481e-09, global = -5.41034e-19, cumulative = 6.71487e-18
ExecutionTime = 2.75 s  ClockTime = 6 s

Time = 1.1

Courant Number mean: 0.451601 max: 1.92384
smoothSolver:  Solving for Ux, Initial residual = 0.000215364, Final residual = 7.6593e-06, No Iterations 6
smoothSolver:  Solving for Uy, Initial residual = 0.000252878, Final residual = 9.07913e-06, No Iterations 6
DICPCG:  Solving for p, Initial residual = 0.00062171, Final residual = 1.84044e-05, No Iterations 36
time step continuity errors : sum local = 2.26626e-08, global = 2.36325e-20, cumulative = 6.7385e-18
DICPCG:  Solving for p, Initial residual = 0.000523514, Final residual = 9.67769e-07, No Iterations 104
time step continuity errors : sum local = 1.16004e-09, global = 2.85257e-19, cumulative = 7.02376e-18
ExecutionTime = 2.77 s  ClockTime = 6 s

Time = 1.1025

Courant Number mean: 0.451696 max: 1.92382
smoothSolver:  Solving for Ux, Initial residual = 0.00021214, Final residual = 7.55163e-06, No Iterations 6
smoothSolver:  Solving for Uy, Initial residual = 0.000247897, Final residual = 8.90953e-06, No Iterations 6
DICPCG:  Solving for p, Initial residual = 0.000603475, Final residual = 1.78578e-05, No Iterations 35
time step continuity errors : sum local = 2.57377e-08, global = 1.36003e-19, cumulative = 7.15976e-18
DICPCG:  Solving for p, Initial residual = 0.000510733, Final residual = 7.27614e-07, No Iterations 94
time step continuity errors : sum local = 8.72175e-10, global = 5.40564e-19, cumulative = 7.70033e-18
ExecutionTime = 2.79 s  ClockTime = 6 s

Time = 1.105

Courant Number mean: 0.451792 max: 1.9238
smoothSolver:  Solving for Ux, Initial residual = 0.000207355, Final residual = 7.3846e-06, No Iterations 6
smoothSolver:  Solving for Uy, Initial residual = 0.000245781, Final residual = 8.83224e-06, No Iterations 6
DICPCG:  Solving for p, Initial residual = 0.000604813, Final residual = 1.62101e-05, No Iterations 83
time step continuity errors : sum local = 1.94784e-08, global = 2.89975e-19, cumulative = 7.9903e-18
DICPCG:  Solving for p, Initial residual = 0.000508745, Final residual = 7.4822e-07, No Iterations 105
time step continuity errors : sum local = 8.98674e-10, global = -2.14337e-19, cumulative = 7.77596e-18
ExecutionTime = 2.82 s  ClockTime = 6 s

Time = 1.1075

Courant Number mean: 0.451887 max: 1.92379
smoothSolver:  Solving for Ux, Initial residual = 0.000204421, Final residual = 7.29336e-06, No Iterations 6
smoothSolver:  Solving for Uy, Initial residual = 0.000240154, Final residual = 8.64193e-06, No Iterations 6
DICPCG:  Solving for p, Initial residual = 0.000572136, Final residual = 1.63285e-05, No Iterations 43
time step continuity errors : sum local = 2.2012e-08, global = 2.89757e-19, cumulative = 8.06572e-18
DICPCG:  Solving for p, Initial residual = 0.000480935, Final residual = 9.19026e-07, No Iterations 104
time step continuity errors : sum local = 1.10132e-09, global = -2.13462e-19, cumulative = 7.85226e-18
ExecutionTime = 2.84 s  ClockTime = 6 s

Time = 1.11

Courant Number mean: 0.451982 max: 1.92377
smoothSolver:  Solving for Ux, Initial residual = 0.000200674, Final residual = 7.16461e-06, No Iterations 6
smoothSolver:  Solving for Uy, Initial residual = 0.000237339, Final residual = 8.54176e-06, No Iterations 6
DICPCG:  Solving for p, Initial residual = 0.000561953, Final residual = 1.43608e-05, No Iterations 78
time step continuity errors : sum local = 1.72792e-08, global = -2.55106e-19, cumulative = 7.59715e-18
DICPCG:  Solving for p, Initial residual = 0.000472477, Final residual = 9.56225e-07, No Iterations 104
time step continuity errors : sum local = 1.14755e-09, global = -2.67903e-20, cumulative = 7.57036e-18
ExecutionTime = 2.86 s  ClockTime = 6 s

Time = 1.1125

Courant Number mean: 0.452077 max: 1.92375
smoothSolver:  Solving for Ux, Initial residual = 0.000197534, Final residual = 7.06179e-06, No Iterations 6
smoothSolver:  Solving for Uy, Initial residual = 0.000232789, Final residual = 8.38699e-06, No Iterations 6
DICPCG:  Solving for p, Initial residual = 0.0005402, Final residual = 1.41938e-05, No Iterations 43
time step continuity errors : sum local = 1.88691e-08, global = -8.68006e-20, cumulative = 7.48356e-18
DICPCG:  Solving for p, Initial residual = 0.00045418, Final residual = 8.53525e-07, No Iterations 104
time step continuity errors : sum local = 1.02269e-09, global = 2.56555e-20, cumulative = 7.50922e-18
ExecutionTime = 2.89 s  ClockTime = 6 s

Time = 1.115

Courant Number mean: 0.452171 max: 1.92374
smoothSolver:  Solving for Ux, Initial residual = 0.000194164, Final residual = 6.94694e-06, No Iterations 6
smoothSolver:  Solving for Uy, Initial residual = 0.000230015, Final residual = 8.2893e-06, No Iterations 6
DICPCG:  Solving for p, Initial residual = 0.000532345, Final residual = 1.58753e-05, No Iterations 44
time step continuity errors : sum local = 2.23151e-08, global = 2.60895e-19, cumulative = 7.77011e-18
DICPCG:  Solving for p, Initial residual = 0.000445291, Final residual = 8.18803e-07, No Iterations 104
time step continuity errors : sum local = 9.81941e-10, global = 3.63374e-19, cumulative = 8.13349e-18
ExecutionTime = 2.92 s  ClockTime = 6 s

Time = 1.1175

Courant Number mean: 0.452266 max: 1.92372
smoothSolver:  Solving for Ux, Initial residual = 0.000192157, Final residual = 6.87852e-06, No Iterations 6
smoothSolver:  Solving for Uy, Initial residual = 0.000225263, Final residual = 8.11916e-06, No Iterations 6
DICPCG:  Solving for p, Initial residual = 0.000520584, Final residual = 1.42997e-05, No Iterations 78
time step continuity errors : sum local = 1.72533e-08, global = -4.60269e-19, cumulative = 7.67322e-18
DICPCG:  Solving for p, Initial residual = 0.000438387, Final residual = 8.13421e-07, No Iterations 94
time step continuity errors : sum local = 9.77511e-10, global = -3.35373e-19, cumulative = 7.33784e-18
ExecutionTime = 2.94 s  ClockTime = 6 s

Time = 1.12

Courant Number mean: 0.45236 max: 1.92371
smoothSolver:  Solving for Ux, Initial residual = 0.000188008, Final residual = 6.73949e-06, No Iterations 6
smoothSolver:  Solving for Uy, Initial residual = 0.000223214, Final residual = 8.05418e-06, No Iterations 6
DICPCG:  Solving for p, Initial residual = 0.000505846, Final residual = 1.50714e-05, No Iterations 40
time step continuity errors : sum local = 1.90204e-08, global = -1.88934e-19, cumulative = 7.14891e-18
DICPCG:  Solving for p, Initial residual = 0.000424806, Final residual = 7.82559e-07, No Iterations 104
time step continuity errors : sum local = 9.38049e-10, global = 2.38813e-20, cumulative = 7.17279e-18
ExecutionTime = 2.97 s  ClockTime = 6 s

Time = 1.1225

Courant Number mean: 0.452454 max: 1.92369
smoothSolver:  Solving for Ux, Initial residual = 0.00018508, Final residual = 6.64141e-06, No Iterations 6
smoothSolver:  Solving for Uy, Initial residual = 0.000220278, Final residual = 7.95063e-06, No Iterations 6
DICPCG:  Solving for p, Initial residual = 0.000489485, Final residual = 1.40267e-05, No Iterations 40
time step continuity errors : sum local = 1.72781e-08, global = -4.34619e-20, cumulative = 7.12933e-18
DICPCG:  Solving for p, Initial residual = 0.000411242, Final residual = 7.07743e-07, No Iterations 104
time step continuity errors : sum local = 8.48146e-10, global = -1.07056e-19, cumulative = 7.02227e-18
ExecutionTime = 2.99 s  ClockTime = 6 s

Time = 1.125

Courant Number mean: 0.452547 max: 1.92368
smoothSolver:  Solving for Ux, Initial residual = 0.000182444, Final residual = 6.55282e-06, No Iterations 6
smoothSolver:  Solving for Uy, Initial residual = 0.000216966, Final residual = 7.83456e-06, No Iterations 6
DICPCG:  Solving for p, Initial residual = 0.000476099, Final residual = 1.31116e-05, No Iterations 78
time step continuity errors : sum local = 1.5875e-08, global = 1.59561e-19, cumulative = 7.18183e-18
DICPCG:  Solving for p, Initial residual = 0.000401561, Final residual = 7.31107e-07, No Iterations 104
time step continuity errors : sum local = 8.78124e-10, global = 1.58104e-19, cumulative = 7.33994e-18
ExecutionTime = 3.02 s  ClockTime = 6 s

Time = 1.1275

Courant Number mean: 0.45264 max: 1.92367
smoothSolver:  Solving for Ux, Initial residual = 0.00017913, Final residual = 6.4407e-06, No Iterations 6
smoothSolver:  Solving for Uy, Initial residual = 0.000214827, Final residual = 7.76328e-06, No Iterations 6
DICPCG:  Solving for p, Initial residual = 0.000470968, Final residual = 1.16946e-05, No Iterations 43
time step continuity errors : sum local = 1.52965e-08, global = -2.58127e-19, cumulative = 7.08181e-18
DICPCG:  Solving for p, Initial residual = 0.00039672, Final residual = 7.10952e-07, No Iterations 104
time step continuity errors : sum local = 8.51755e-10, global = 8.972e-20, cumulative = 7.17153e-18
ExecutionTime = 3.04 s  ClockTime = 6 s

Time = 1.13

Courant Number mean: 0.452733 max: 1.92366
smoothSolver:  Solving for Ux, Initial residual = 0.000176296, Final residual = 6.34543e-06, No Iterations 6
smoothSolver:  Solving for Uy, Initial residual = 0.000212514, Final residual = 7.68144e-06, No Iterations 6
DICPCG:  Solving for p, Initial residual = 0.000459335, Final residual = 1.22329e-05, No Iterations 43
time step continuity errors : sum local = 1.62388e-08, global = 7.76829e-20, cumulative = 7.24921e-18
DICPCG:  Solving for p, Initial residual = 0.000384836, Final residual = 6.82075e-07, No Iterations 104
time step continuity errors : sum local = 8.17882e-10, global = 4.39029e-20, cumulative = 7.29312e-18
ExecutionTime = 3.06 s  ClockTime = 6 s

Time = 1.1325

Courant Number mean: 0.452825 max: 1.92364
smoothSolver:  Solving for Ux, Initial residual = 0.000174228, Final residual = 6.27514e-06, No Iterations 6
smoothSolver:  Solving for Uy, Initial residual = 0.00020912, Final residual = 7.56107e-06, No Iterations 6
DICPCG:  Solving for p, Initial residual = 0.00044734, Final residual = 1.22334e-05, No Iterations 78
time step continuity errors : sum local = 1.47855e-08, global = 2.55973e-19, cumulative = 7.54909e-18
DICPCG:  Solving for p, Initial residual = 0.000377389, Final residual = 7.33358e-07, No Iterations 104
time step continuity errors : sum local = 8.82247e-10, global = 2.92305e-19, cumulative = 7.8414e-18
ExecutionTime = 3.08 s  ClockTime = 6 s

Time = 1.135

Courant Number mean: 0.452917 max: 1.92363
smoothSolver:  Solving for Ux, Initial residual = 0.000170927, Final residual = 6.16375e-06, No Iterations 6
smoothSolver:  Solving for Uy, Initial residual = 0.000207361, Final residual = 7.50307e-06, No Iterations 6
DICPCG:  Solving for p, Initial residual = 0.000440771, Final residual = 1.13044e-05, No Iterations 43
time step continuity errors : sum local = 1.48116e-08, global = -3.36936e-19, cumulative = 7.50446e-18
DICPCG:  Solving for p, Initial residual = 0.000371178, Final residual = 6.64783e-07, No Iterations 104
time step continuity errors : sum local = 7.96437e-10, global = 2.95011e-19, cumulative = 7.79947e-18
ExecutionTime = 3.1 s  ClockTime = 7 s

Time = 1.1375

Courant Number mean: 0.453009 max: 1.92362
smoothSolver:  Solving for Ux, Initial residual = 0.00016829, Final residual = 6.07476e-06, No Iterations 6
smoothSolver:  Solving for Uy, Initial residual = 0.000205288, Final residual = 7.42852e-06, No Iterations 6
DICPCG:  Solving for p, Initial residual = 0.000430214, Final residual = 1.16393e-05, No Iterations 43
time step continuity errors : sum local = 1.54529e-08, global = -7.74307e-19, cumulative = 7.02516e-18
DICPCG:  Solving for p, Initial residual = 0.000360466, Final residual = 6.37599e-07, No Iterations 104
time step continuity errors : sum local = 7.6488e-10, global = -5.81515e-19, cumulative = 6.44365e-18
ExecutionTime = 3.12 s  ClockTime = 7 s

Time = 1.14

Courant Number mean: 0.4531 max: 1.92361
smoothSolver:  Solving for Ux, Initial residual = 0.000166408, Final residual = 6.01024e-06, No Iterations 6
smoothSolver:  Solving for Uy, Initial residual = 0.000202101, Final residual = 7.31634e-06, No Iterations 6
DICPCG:  Solving for p, Initial residual = 0.000418933, Final residual = 1.13867e-05, No Iterations 78
time step continuity errors : sum local = 1.37555e-08, global = 2.66947e-20, cumulative = 6.47034e-18
DICPCG:  Solving for p, Initial residual = 0.000353343, Final residual = 9.08452e-07, No Iterations 103
time step continuity errors : sum local = 1.09105e-09, global = -1.00347e-19, cumulative = 6.37e-18
ExecutionTime = 3.14 s  ClockTime = 7 s

Time = 1.1425

Courant Number mean: 0.453191 max: 1.9236
smoothSolver:  Solving for Ux, Initial residual = 0.000163349, Final residual = 5.90617e-06, No Iterations 6
smoothSolver:  Solving for Uy, Initial residual = 0.000200505, Final residual = 7.26557e-06, No Iterations 6
DICPCG:  Solving for p, Initial residual = 0.000412953, Final residual = 1.09249e-05, No Iterations 43
time step continuity errors : sum local = 1.44008e-08, global = 2.26712e-20, cumulative = 6.39267e-18
DICPCG:  Solving for p, Initial residual = 0.000348022, Final residual = 9.53245e-07, No Iterations 103
time step continuity errors : sum local = 1.14173e-09, global = 3.64897e-19, cumulative = 6.75756e-18
ExecutionTime = 3.16 s  ClockTime = 7 s

Time = 1.145

Courant Number mean: 0.453281 max: 1.92359
smoothSolver:  Solving for Ux, Initial residual = 0.00016086, Final residual = 5.82194e-06, No Iterations 6
smoothSolver:  Solving for Uy, Initial residual = 0.00019863, Final residual = 7.19784e-06, No Iterations 6
DICPCG:  Solving for p, Initial residual = 0.000404477, Final residual = 1.14427e-05, No Iterations 43
time step continuity errors : sum local = 1.53195e-08, global = 1.96833e-20, cumulative = 6.77725e-18
DICPCG:  Solving for p, Initial residual = 0.00033872, Final residual = 9.32848e-07, No Iterations 103
time step continuity errors : sum local = 1.11861e-09, global = 6.8146e-19, cumulative = 7.45871e-18
ExecutionTime = 3.17 s  ClockTime = 7 s

Time = 1.1475

Courant Number mean: 0.453371 max: 1.92359
smoothSolver:  Solving for Ux, Initial residual = 0.000159187, Final residual = 5.76429e-06, No Iterations 6
smoothSolver:  Solving for Uy, Initial residual = 0.000195591, Final residual = 7.08948e-06, No Iterations 6
DICPCG:  Solving for p, Initial residual = 0.000394141, Final residual = 1.05237e-05, No Iterations 78
[...]
time step continuity errors : sum local = 1.40492e-09, global = -3.64747e-19, cumulative = 1.24387e-17
DICPCG:  Solving for p, Initial residual = 1.44894e-06, Final residual = 9.34342e-07, No Iterations 6
time step continuity errors : sum local = 1.39121e-09, global = 6.60808e-19, cumulative = 1.30995e-17
ExecutionTime = 10.11 s  ClockTime = 21 s

Time = 1.935

Courant Number mean: 0.461318 max: 1.92369
smoothSolver:  Solving for Ux, Initial residual = 7.58478e-06, Final residual = 7.58478e-06, No Iterations 0
smoothSolver:  Solving for Uy, Initial residual = 9.55435e-06, Final residual = 9.55435e-06, No Iterations 0
DICPCG:  Solving for p, Initial residual = 2.03608e-06, Final residual = 9.97239e-07, No Iterations 62
time step continuity errors : sum local = 1.19684e-09, global = -4.37207e-20, cumulative = 1.30558e-17
DICPCG:  Solving for p, Initial residual = 1.61251e-06, Final residual = 9.05707e-07, No Iterations 5
time step continuity errors : sum local = 1.2027e-09, global = -7.04474e-20, cumulative = 1.29854e-17
ExecutionTime = 10.13 s  ClockTime = 21 s

Time = 1.9375

Courant Number mean: 0.461319 max: 1.92369
smoothSolver:  Solving for Ux, Initial residual = 7.48673e-06, Final residual = 7.48673e-06, No Iterations 0
smoothSolver:  Solving for Uy, Initial residual = 9.64517e-06, Final residual = 9.64517e-06, No Iterations 0
DICPCG:  Solving for p, Initial residual = 1.7509e-06, Final residual = 9.58076e-07, No Iterations 24
time step continuity errors : sum local = 1.42216e-09, global = -3.90707e-20, cumulative = 1.29463e-17
DICPCG:  Solving for p, Initial residual = 1.6207e-06, Final residual = 9.97904e-07, No Iterations 4
time step continuity errors : sum local = 1.52213e-09, global = 1.28273e-19, cumulative = 1.30746e-17
ExecutionTime = 10.13 s  ClockTime = 21 s

Time = 1.94

Courant Number mean: 0.461321 max: 1.92369
smoothSolver:  Solving for Ux, Initial residual = 7.51068e-06, Final residual = 7.51068e-06, No Iterations 0
smoothSolver:  Solving for Uy, Initial residual = 9.5322e-06, Final residual = 9.5322e-06, No Iterations 0
DICPCG:  Solving for p, Initial residual = 1.87546e-06, Final residual = 9.48138e-07, No Iterations 60
time step continuity errors : sum local = 1.14901e-09, global = 1.32447e-19, cumulative = 1.3207e-17
DICPCG:  Solving for p, Initial residual = 1.59052e-06, Final residual = 8.5743e-07, No Iterations 6
time step continuity errors : sum local = 1.13493e-09, global = 8.91323e-20, cumulative = 1.32961e-17
ExecutionTime = 10.15 s  ClockTime = 21 s

Time = 1.9425

Courant Number mean: 0.461322 max: 1.92369
smoothSolver:  Solving for Ux, Initial residual = 7.52868e-06, Final residual = 7.52868e-06, No Iterations 0
smoothSolver:  Solving for Uy, Initial residual = 9.46957e-06, Final residual = 9.46957e-06, No Iterations 0
DICPCG:  Solving for p, Initial residual = 1.78921e-06, Final residual = 8.97168e-07, No Iterations 25
time step continuity errors : sum local = 1.35648e-09, global = 1.67541e-19, cumulative = 1.34637e-17
DICPCG:  Solving for p, Initial residual = 1.51537e-06, Final residual = 9.63749e-07, No Iterations 4
time step continuity errors : sum local = 1.49534e-09, global = -4.00294e-19, cumulative = 1.30634e-17
ExecutionTime = 10.15 s  ClockTime = 21 s

Time = 1.945

Courant Number mean: 0.461323 max: 1.92369
smoothSolver:  Solving for Ux, Initial residual = 7.48491e-06, Final residual = 7.48491e-06, No Iterations 0
smoothSolver:  Solving for Uy, Initial residual = 9.42614e-06, Final residual = 9.42614e-06, No Iterations 0
DICPCG:  Solving for p, Initial residual = 1.92651e-06, Final residual = 9.71772e-07, No Iterations 63
time step continuity errors : sum local = 1.17837e-09, global = 1.38593e-19, cumulative = 1.3202e-17
DICPCG:  Solving for p, Initial residual = 1.63729e-06, Final residual = 9.50026e-07, No Iterations 5
time step continuity errors : sum local = 1.26878e-09, global = -2.36146e-19, cumulative = 1.29658e-17
ExecutionTime = 10.17 s  ClockTime = 21 s

Time = 1.9475

Courant Number mean: 0.461325 max: 1.92369
smoothSolver:  Solving for Ux, Initial residual = 7.3594e-06, Final residual = 7.3594e-06, No Iterations 0
smoothSolver:  Solving for Uy, Initial residual = 9.57101e-06, Final residual = 9.57101e-06, No Iterations 0
DICPCG:  Solving for p, Initial residual = 2.05384e-06, Final residual = 9.05335e-07, No Iterations 69
time step continuity errors : sum local = 1.08664e-09, global = 3.54912e-19, cumulative = 1.33207e-17
DICPCG:  Solving for p, Initial residual = 1.54245e-06, Final residual = 9.41187e-07, No Iterations 17
time step continuity errors : sum local = 1.21179e-09, global = 1.94811e-19, cumulative = 1.35156e-17
ExecutionTime = 10.18 s  ClockTime = 21 s

Time = 1.95

Courant Number mean: 0.461326 max: 1.92369
smoothSolver:  Solving for Ux, Initial residual = 7.41722e-06, Final residual = 7.41722e-06, No Iterations 0
smoothSolver:  Solving for Uy, Initial residual = 9.41714e-06, Final residual = 9.41714e-06, No Iterations 0
DICPCG:  Solving for p, Initial residual = 1.72991e-06, Final residual = 8.35346e-07, No Iterations 5
time step continuity errors : sum local = 1.14658e-09, global = 1.75733e-19, cumulative = 1.36913e-17
DICPCG:  Solving for p, Initial residual = 1.44889e-06, Final residual = 8.48283e-07, No Iterations 19
time step continuity errors : sum local = 1.22299e-09, global = -4.45878e-19, cumulative = 1.32454e-17
ExecutionTime = 10.2 s  ClockTime = 21 s

Time = 1.9525

Courant Number mean: 0.461328 max: 1.92369
smoothSolver:  Solving for Ux, Initial residual = 7.375e-06, Final residual = 7.375e-06, No Iterations 0
smoothSolver:  Solving for Uy, Initial residual = 9.38263e-06, Final residual = 9.38263e-06, No Iterations 0
DICPCG:  Solving for p, Initial residual = 1.68501e-06, Final residual = 9.96356e-07, No Iterations 7
time step continuity errors : sum local = 1.42974e-09, global = 3.46805e-19, cumulative = 1.35922e-17
DICPCG:  Solving for p, Initial residual = 1.53447e-06, Final residual = 9.78152e-07, No Iterations 23
time step continuity errors : sum local = 1.40898e-09, global = -5.92406e-19, cumulative = 1.29998e-17
ExecutionTime = 10.21 s  ClockTime = 21 s

Time = 1.955

Courant Number mean: 0.461329 max: 1.92369
smoothSolver:  Solving for Ux, Initial residual = 7.33603e-06, Final residual = 7.33603e-06, No Iterations 0
smoothSolver:  Solving for Uy, Initial residual = 9.37908e-06, Final residual = 9.37908e-06, No Iterations 0
DICPCG:  Solving for p, Initial residual = 1.78917e-06, Final residual = 9.75313e-07, No Iterations 29
time step continuity errors : sum local = 1.40417e-09, global = -3.5632e-19, cumulative = 1.26435e-17
DICPCG:  Solving for p, Initial residual = 1.47609e-06, Final residual = 9.48217e-07, No Iterations 25
time step continuity errors : sum local = 1.35656e-09, global = -2.87774e-19, cumulative = 1.23557e-17
ExecutionTime = 10.22 s  ClockTime = 21 s

Time = 1.9575

Courant Number mean: 0.461331 max: 1.92369
smoothSolver:  Solving for Ux, Initial residual = 7.30161e-06, Final residual = 7.30161e-06, No Iterations 0
smoothSolver:  Solving for Uy, Initial residual = 9.36448e-06, Final residual = 9.36448e-06, No Iterations 0
DICPCG:  Solving for p, Initial residual = 1.60664e-06, Final residual = 9.13027e-07, No Iterations 28
time step continuity errors : sum local = 1.30531e-09, global = 3.47932e-19, cumulative = 1.27036e-17
DICPCG:  Solving for p, Initial residual = 1.36366e-06, Final residual = 9.73503e-07, No Iterations 19
time step continuity errors : sum local = 1.35375e-09, global = -2.37708e-20, cumulative = 1.26799e-17
ExecutionTime = 10.23 s  ClockTime = 21 s

Time = 1.96

Courant Number mean: 0.461332 max: 1.92369
smoothSolver:  Solving for Ux, Initial residual = 7.27088e-06, Final residual = 7.27088e-06, No Iterations 0
smoothSolver:  Solving for Uy, Initial residual = 9.34126e-06, Final residual = 9.34126e-06, No Iterations 0
DICPCG:  Solving for p, Initial residual = 1.66244e-06, Final residual = 9.93041e-07, No Iterations 4
time step continuity errors : sum local = 1.36335e-09, global = -6.76729e-19, cumulative = 1.20031e-17
DICPCG:  Solving for p, Initial residual = 1.56866e-06, Final residual = 9.93358e-07, No Iterations 7
time step continuity errors : sum local = 1.35382e-09, global = -3.11061e-19, cumulative = 1.16921e-17
ExecutionTime = 10.23 s  ClockTime = 21 s

Time = 1.9625

Courant Number mean: 0.461333 max: 1.92369
smoothSolver:  Solving for Ux, Initial residual = 7.25914e-06, Final residual = 7.25914e-06, No Iterations 0
smoothSolver:  Solving for Uy, Initial residual = 9.27794e-06, Final residual = 9.27794e-06, No Iterations 0
DICPCG:  Solving for p, Initial residual = 1.74702e-06, Final residual = 8.63391e-07, No Iterations 9
time step continuity errors : sum local = 1.21489e-09, global = -1.25059e-19, cumulative = 1.1567e-17
DICPCG:  Solving for p, Initial residual = 1.32672e-06, Final residual = 7.26372e-07, No Iterations 5
time step continuity errors : sum local = 1.0515e-09, global = 3.23465e-19, cumulative = 1.18905e-17
ExecutionTime = 10.25 s  ClockTime = 21 s

Time = 1.965

Courant Number mean: 0.461335 max: 1.92369
smoothSolver:  Solving for Ux, Initial residual = 7.2398e-06, Final residual = 7.2398e-06, No Iterations 0
smoothSolver:  Solving for Uy, Initial residual = 9.23719e-06, Final residual = 9.23719e-06, No Iterations 0
DICPCG:  Solving for p, Initial residual = 1.32208e-06, Final residual = 9.03123e-07, No Iterations 7
time step continuity errors : sum local = 1.2622e-09, global = 5.80207e-19, cumulative = 1.24707e-17
DICPCG:  Solving for p, Initial residual = 1.36956e-06, Final residual = 9.72437e-07, No Iterations 4
time step continuity errors : sum local = 1.35283e-09, global = -3.19488e-19, cumulative = 1.21512e-17
ExecutionTime = 10.25 s  ClockTime = 21 s

Time = 1.9675

Courant Number mean: 0.461336 max: 1.92369
smoothSolver:  Solving for Ux, Initial residual = 7.21268e-06, Final residual = 7.21268e-06, No Iterations 0
smoothSolver:  Solving for Uy, Initial residual = 9.20932e-06, Final residual = 9.20932e-06, No Iterations 0
DICPCG:  Solving for p, Initial residual = 1.88685e-06, Final residual = 8.93066e-07, No Iterations 11
time step continuity errors : sum local = 1.27332e-09, global = 1.14728e-18, cumulative = 1.32985e-17
DICPCG:  Solving for p, Initial residual = 1.33915e-06, Final residual = 6.81962e-07, No Iterations 2
time step continuity errors : sum local = 1.02788e-09, global = -5.1462e-19, cumulative = 1.27839e-17
ExecutionTime = 10.26 s  ClockTime = 21 s

Time = 1.97

Courant Number mean: 0.461338 max: 1.92369
smoothSolver:  Solving for Ux, Initial residual = 7.17332e-06, Final residual = 7.17332e-06, No Iterations 0
smoothSolver:  Solving for Uy, Initial residual = 9.21181e-06, Final residual = 9.21181e-06, No Iterations 0
DICPCG:  Solving for p, Initial residual = 1.31157e-06, Final residual = 6.84561e-07, No Iterations 4
time step continuity errors : sum local = 1.03323e-09, global = -7.95279e-20, cumulative = 1.27043e-17
DICPCG:  Solving for p, Initial residual = 1.08689e-06, Final residual = 8.78445e-07, No Iterations 7
time step continuity errors : sum local = 1.27215e-09, global = 6.56949e-20, cumulative = 1.277e-17
ExecutionTime = 10.26 s  ClockTime = 21 s

Time = 1.9725

Courant Number mean: 0.461339 max: 1.92369
smoothSolver:  Solving for Ux, Initial residual = 7.15079e-06, Final residual = 7.15079e-06, No Iterations 0
smoothSolver:  Solving for Uy, Initial residual = 9.17492e-06, Final residual = 9.17492e-06, No Iterations 0
DICPCG:  Solving for p, Initial residual = 1.54265e-06, Final residual = 7.86796e-07, No Iterations 10
time step continuity errors : sum local = 1.16652e-09, global = -8.86738e-20, cumulative = 1.26814e-17
DICPCG:  Solving for p, Initial residual = 1.25876e-06, Final residual = 7.11448e-07, No Iterations 5
time step continuity errors : sum local = 1.08177e-09, global = 4.41048e-19, cumulative = 1.31224e-17
ExecutionTime = 10.27 s  ClockTime = 21 s

Time = 1.975

Courant Number mean: 0.461341 max: 1.92369
smoothSolver:  Solving for Ux, Initial residual = 7.12648e-06, Final residual = 7.12648e-06, No Iterations 0
smoothSolver:  Solving for Uy, Initial residual = 9.147e-06, Final residual = 9.147e-06, No Iterations 0
DICPCG:  Solving for p, Initial residual = 1.32329e-06, Final residual = 9.2985e-07, No Iterations 5
time step continuity errors : sum local = 1.34567e-09, global = 2.58692e-19, cumulative = 1.33811e-17
DICPCG:  Solving for p, Initial residual = 1.59958e-06, Final residual = 9.67698e-07, No Iterations 9
time step continuity errors : sum local = 1.3975e-09, global = 1.75793e-19, cumulative = 1.35569e-17
ExecutionTime = 10.3 s  ClockTime = 21 s

Time = 1.9775

Courant Number mean: 0.461342 max: 1.92369
smoothSolver:  Solving for Ux, Initial residual = 7.09863e-06, Final residual = 7.09863e-06, No Iterations 0
smoothSolver:  Solving for Uy, Initial residual = 9.12235e-06, Final residual = 9.12235e-06, No Iterations 0
DICPCG:  Solving for p, Initial residual = 1.70396e-06, Final residual = 7.11653e-07, No Iterations 4
time step continuity errors : sum local = 1.09158e-09, global = 2.45972e-19, cumulative = 1.38029e-17
DICPCG:  Solving for p, Initial residual = 1.17821e-06, Final residual = 9.5595e-07, No Iterations 8
time step continuity errors : sum local = 1.3969e-09, global = 2.62607e-20, cumulative = 1.38291e-17
ExecutionTime = 10.32 s  ClockTime = 21 s

Time = 1.98

Courant Number mean: 0.461343 max: 1.92369
smoothSolver:  Solving for Ux, Initial residual = 7.07148e-06, Final residual = 7.07148e-06, No Iterations 0
smoothSolver:  Solving for Uy, Initial residual = 9.09547e-06, Final residual = 9.09547e-06, No Iterations 0
DICPCG:  Solving for p, Initial residual = 1.44846e-06, Final residual = 8.81737e-07, No Iterations 4
time step continuity errors : sum local = 1.31142e-09, global = 1.64466e-19, cumulative = 1.39936e-17
DICPCG:  Solving for p, Initial residual = 1.44288e-06, Final residual = 8.89405e-07, No Iterations 10
time step continuity errors : sum local = 1.32852e-09, global = 4.69008e-19, cumulative = 1.44626e-17
ExecutionTime = 10.32 s  ClockTime = 21 s

Time = 1.9825

Courant Number mean: 0.461345 max: 1.92369
smoothSolver:  Solving for Ux, Initial residual = 7.04691e-06, Final residual = 7.04691e-06, No Iterations 0
smoothSolver:  Solving for Uy, Initial residual = 9.07114e-06, Final residual = 9.07114e-06, No Iterations 0
DICPCG:  Solving for p, Initial residual = 1.44039e-06, Final residual = 8.20171e-07, No Iterations 2
time step continuity errors : sum local = 1.25048e-09, global = 4.095e-20, cumulative = 1.45035e-17
DICPCG:  Solving for p, Initial residual = 1.43242e-06, Final residual = 8.16341e-07, No Iterations 10
time step continuity errors : sum local = 1.25762e-09, global = -4.47809e-19, cumulative = 1.40557e-17
ExecutionTime = 10.32 s  ClockTime = 21 s

Time = 1.985

Courant Number mean: 0.461346 max: 1.92369
smoothSolver:  Solving for Ux, Initial residual = 7.0194e-06, Final residual = 7.0194e-06, No Iterations 0
smoothSolver:  Solving for Uy, Initial residual = 9.04606e-06, Final residual = 9.04606e-06, No Iterations 0
DICPCG:  Solving for p, Initial residual = 1.40126e-06, Final residual = 9.60346e-07, No Iterations 3
time step continuity errors : sum local = 1.43404e-09, global = -2.35619e-19, cumulative = 1.38201e-17
DICPCG:  Solving for p, Initial residual = 1.58264e-06, Final residual = 8.41039e-07, No Iterations 6
time step continuity errors : sum local = 1.2894e-09, global = -4.76944e-20, cumulative = 1.37724e-17
ExecutionTime = 10.33 s  ClockTime = 21 s

Time = 1.9875

Courant Number mean: 0.461347 max: 1.92369
smoothSolver:  Solving for Ux, Initial residual = 7.00266e-06, Final residual = 7.00266e-06, No Iterations 0
smoothSolver:  Solving for Uy, Initial residual = 9.00741e-06, Final residual = 9.00741e-06, No Iterations 0
DICPCG:  Solving for p, Initial residual = 1.55514e-06, Final residual = 8.07735e-07, No Iterations 9
time step continuity errors : sum local = 1.25623e-09, global = -1.06708e-19, cumulative = 1.36657e-17
DICPCG:  Solving for p, Initial residual = 1.35645e-06, Final residual = 9.00121e-07, No Iterations 2
time step continuity errors : sum local = 1.37619e-09, global = -7.22035e-20, cumulative = 1.35935e-17
ExecutionTime = 10.34 s  ClockTime = 21 s

Time = 1.99

Courant Number mean: 0.461349 max: 1.92369
smoothSolver:  Solving for Ux, Initial residual = 6.97655e-06, Final residual = 6.97655e-06, No Iterations 0
smoothSolver:  Solving for Uy, Initial residual = 8.98218e-06, Final residual = 8.98218e-06, No Iterations 0
DICPCG:  Solving for p, Initial residual = 1.70778e-06, Final residual = 9.07557e-07, No Iterations 5
time step continuity errors : sum local = 1.38499e-09, global = -3.71524e-20, cumulative = 1.35564e-17
DICPCG:  Solving for p, Initial residual = 1.54314e-06, Final residual = 9.93214e-07, No Iterations 12
time step continuity errors : sum local = 1.49421e-09, global = -1.73243e-20, cumulative = 1.3539e-17
ExecutionTime = 10.35 s  ClockTime = 21 s

Time = 1.9925

Courant Number mean: 0.46135 max: 1.92369
smoothSolver:  Solving for Ux, Initial residual = 6.9397e-06, Final residual = 6.9397e-06, No Iterations 0
smoothSolver:  Solving for Uy, Initial residual = 8.97352e-06, Final residual = 8.97352e-06, No Iterations 0
DICPCG:  Solving for p, Initial residual = 1.71736e-06, Final residual = 7.61631e-07, No Iterations 3
time step continuity errors : sum local = 1.22309e-09, global = 8.53217e-20, cumulative = 1.36244e-17
DICPCG:  Solving for p, Initial residual = 1.24394e-06, Final residual = 9.53714e-07, No Iterations 3
time step continuity errors : sum local = 1.45138e-09, global = 1.68413e-19, cumulative = 1.37928e-17
ExecutionTime = 10.35 s  ClockTime = 22 s

Time = 1.995

Courant Number mean: 0.461352 max: 1.92369
smoothSolver:  Solving for Ux, Initial residual = 6.92829e-06, Final residual = 6.92829e-06, No Iterations 0
smoothSolver:  Solving for Uy, Initial residual = 8.92563e-06, Final residual = 8.92563e-06, No Iterations 0
DICPCG:  Solving for p, Initial residual = 1.77482e-06, Final residual = 9.15003e-07, No Iterations 11
time step continuity errors : sum local = 1.40966e-09, global = -3.47741e-19, cumulative = 1.3445e-17
DICPCG:  Solving for p, Initial residual = 1.30882e-06, Final residual = 9.48905e-07, No Iterations 3
time step continuity errors : sum local = 1.45172e-09, global = -5.69007e-20, cumulative = 1.33881e-17
ExecutionTime = 10.36 s  ClockTime = 22 s

Time = 1.9975

Courant Number mean: 0.461353 max: 1.92369
smoothSolver:  Solving for Ux, Initial residual = 6.90646e-06, Final residual = 6.90646e-06, No Iterations 0
smoothSolver:  Solving for Uy, Initial residual = 8.8926e-06, Final residual = 8.8926e-06, No Iterations 0
DICPCG:  Solving for p, Initial residual = 1.63044e-06, Final residual = 9.39459e-07, No Iterations 2
time step continuity errors : sum local = 1.44269e-09, global = -3.57628e-19, cumulative = 1.30305e-17
DICPCG:  Solving for p, Initial residual = 1.70979e-06, Final residual = 9.81569e-07, No Iterations 10
time step continuity errors : sum local = 1.5092e-09, global = 7.18584e-20, cumulative = 1.31024e-17
ExecutionTime = 10.37 s  ClockTime = 22 s

Time = 2

Courant Number mean: 0.461354 max: 1.92369
smoothSolver:  Solving for Ux, Initial residual = 6.86615e-06, Final residual = 6.86615e-06, No Iterations 0
smoothSolver:  Solving for Uy, Initial residual = 8.89181e-06, Final residual = 8.89181e-06, No Iterations 0
DICPCG:  Solving for p, Initial residual = 1.61273e-06, Final residual = 9.6238e-07, No Iterations 3
time step continuity errors : sum local = 1.49272e-09, global = -6.91513e-20, cumulative = 1.30332e-17
DICPCG:  Solving for p, Initial residual = 1.45257e-06, Final residual = 7.54686e-07, No Iterations 2
time step continuity errors : sum local = 1.24856e-09, global = 2.94392e-20, cumulative = 1.30626e-17
ExecutionTime = 10.37 s  ClockTime = 22 s

End

