/*---------------------------------------------------------------------------*\
| =========                 |                                                 |
| \\      /  F ield         | OpenFOAM: The Open Source CFD Toolbox           |
|  \\    /   O peration     | Version:  2506                                  |
|   \\  /    A nd           | Website:  www.openfoam.com                      |
|    \\/     M anipulation  |                                                 |
\*---------------------------------------------------------------------------*/
Build  : _615aae61-20250627 OPENFOAM=2506 version=2506
Arch   : "LSB;label=32;scalar=64"
Exec   : icoFoam
Date   : Jul 11 2025
Time   : 21:22:48
Host   : 97b9b357991d
PID    : 267
I/O    : uncollated
Case   : /home/openfoam/myproject/cavityFine
nProcs : 1
trapFpe: Floating point exception trapping enabled (FOAM_SIGFPE).
fileModificationChecking : Monitoring run-time modified files using timeStampMaster (fileModificationSkew 5, maxFileModificationPolls 20)
allowSystemOperations : Allowing user-supplied system call operations

// * * * * * * * * * * * * * * * * * * * * * * * * * * * * * * * * * * * * * //
Create time

Create mesh for time = 0.475


PISO: Operating solver in PISO mode

Reading transportProperties

Reading field p

Reading field U

Reading/calculating face flux field phi


Starting time loop

Time = 0.47625

Courant Number mean: 0.224446 max: 0.906763
smoothSolver:  Solving for Ux, Initial residual = 0.303142, Final residual = 8.82244e-06, No Iterations 22
smoothSolver:  Solving for Uy, Initial residual = 0.461171, Final residual = 8.72425e-06, No Iterations 28
DICPCG:  Solving for p, Initial residual = 0.793655, Final residual = 0.0237315, No Iterations 27
time step continuity errors : sum local = 4.28064e-05, global = 1.19279e-19, cumulative = 1.19279e-19
DICPCG:  Solving for p, Initial residual = 0.428255, Final residual = 9.43843e-07, No Iterations 133
time step continuity errors : sum local = 9.54221e-10, global = -1.81656e-19, cumulative = -6.23761e-20
ExecutionTime = 0.08 s  ClockTime = 0 s

Time = 0.4775

Courant Number mean: 0.225221 max: 0.959942
smoothSolver:  Solving for Ux, Initial residual = 0.0192174, Final residual = 8.90212e-06, No Iterations 56
smoothSolver:  Solving for Uy, Initial residual = 0.0303944, Final residual = 9.07953e-06, No Iterations 51
DICPCG:  Solving for p, Initial residual = 0.596189, Final residual = 0.0169566, No Iterations 90
time step continuity errors : sum local = 1.92369e-05, global = -1.062e-19, cumulative = -1.68576e-19
DICPCG:  Solving for p, Initial residual = 0.523372, Final residual = 9.02661e-07, No Iterations 133
time step continuity errors : sum local = 1.03512e-09, global = -1.28368e-19, cumulative = -2.96944e-19
ExecutionTime = 0.12 s  ClockTime = 0 s

Time = 0.47875

Courant Number mean: 0.225511 max: 0.964212
smoothSolver:  Solving for Ux, Initial residual = 0.00457045, Final residual = 9.21661e-06, No Iterations 40
smoothSolver:  Solving for Uy, Initial residual = 0.00793275, Final residual = 8.85248e-06, No Iterations 42
DICPCG:  Solving for p, Initial residual = 0.323954, Final residual = 0.00927358, No Iterations 39
time step continuity errors : sum local = 7.5536e-06, global = -9.00334e-21, cumulative = -3.05947e-19
DICPCG:  Solving for p, Initial residual = 0.285891, Final residual = 9.81086e-07, No Iterations 131
time step continuity errors : sum local = 7.21256e-10, global = -1.78633e-19, cumulative = -4.8458e-19
ExecutionTime = 0.17 s  ClockTime = 0 s

Time = 0.48

Courant Number mean: 0.225509 max: 0.963536
smoothSolver:  Solving for Ux, Initial residual = 0.00249059, Final residual = 8.8074e-06, No Iterations 39
smoothSolver:  Solving for Uy, Initial residual = 0.00485242, Final residual = 9.54547e-06, No Iterations 40
DICPCG:  Solving for p, Initial residual = 0.190778, Final residual = 0.00556426, No Iterations 91
time step continuity errors : sum local = 3.71495e-06, global = 5.7207e-20, cumulative = -4.27373e-19
DICPCG:  Solving for p, Initial residual = 0.157963, Final residual = 8.79491e-07, No Iterations 129
time step continuity errors : sum local = 6.29767e-10, global = -3.48123e-20, cumulative = -4.62186e-19
ExecutionTime = 0.21 s  ClockTime = 0 s

Time = 0.48125

Courant Number mean: 0.225529 max: 0.963556
smoothSolver:  Solving for Ux, Initial residual = 0.00123541, Final residual = 9.62553e-06, No Iterations 29
smoothSolver:  Solving for Uy, Initial residual = 0.00272861, Final residual = 9.17415e-06, No Iterations 35
DICPCG:  Solving for p, Initial residual = 0.103227, Final residual = 0.00289749, No Iterations 88
time step continuity errors : sum local = 1.78102e-06, global = -3.07323e-20, cumulative = -4.92918e-19
DICPCG:  Solving for p, Initial residual = 0.0885354, Final residual = 9.68313e-07, No Iterations 127
time step continuity errors : sum local = 6.16401e-10, global = -1.88061e-19, cumulative = -6.80979e-19
ExecutionTime = 0.26 s  ClockTime = 1 s

Time = 0.4825

Courant Number mean: 0.225542 max: 0.96323
smoothSolver:  Solving for Ux, Initial residual = 0.000501269, Final residual = 8.85157e-06, No Iterations 23
smoothSolver:  Solving for Uy, Initial residual = 0.00134003, Final residual = 8.87754e-06, No Iterations 32
DICPCG:  Solving for p, Initial residual = 0.0541075, Final residual = 0.00153467, No Iterations 89
time step continuity errors : sum local = 9.06394e-07, global = 1.19025e-19, cumulative = -5.61954e-19
DICPCG:  Solving for p, Initial residual = 0.0474155, Final residual = 6.64521e-07, No Iterations 119
time step continuity errors : sum local = 3.97141e-10, global = -2.68672e-19, cumulative = -8.30626e-19
ExecutionTime = 0.29 s  ClockTime = 1 s

Time = 0.48375

Courant Number mean: 0.225553 max: 0.963359
smoothSolver:  Solving for Ux, Initial residual = 0.00025438, Final residual = 9.40063e-06, No Iterations 19
smoothSolver:  Solving for Uy, Initial residual = 0.000624734, Final residual = 8.90875e-06, No Iterations 24
DICPCG:  Solving for p, Initial residual = 0.0288839, Final residual = 0.000831908, No Iterations 85
time step continuity errors : sum local = 4.80699e-07, global = 1.02802e-19, cumulative = -7.27824e-19
DICPCG:  Solving for p, Initial residual = 0.025459, Final residual = 8.34039e-07, No Iterations 122
time step continuity errors : sum local = 4.86426e-10, global = 7.78696e-20, cumulative = -6.49954e-19
ExecutionTime = 0.32 s  ClockTime = 1 s

Time = 0.485

Courant Number mean: 0.225566 max: 0.963253
smoothSolver:  Solving for Ux, Initial residual = 0.000129614, Final residual = 9.0635e-06, No Iterations 15
smoothSolver:  Solving for Uy, Initial residual = 0.000387547, Final residual = 9.22275e-06, No Iterations 24
DICPCG:  Solving for p, Initial residual = 0.015004, Final residual = 0.000387672, No Iterations 89
time step continuity errors : sum local = 2.22248e-07, global = -7.86804e-20, cumulative = -7.28635e-19
DICPCG:  Solving for p, Initial residual = 0.0133539, Final residual = 8.34529e-07, No Iterations 115
time step continuity errors : sum local = 4.79403e-10, global = -1.53216e-20, cumulative = -7.43956e-19
ExecutionTime = 0.36 s  ClockTime = 1 s

Time = 0.48625

Courant Number mean: 0.22558 max: 0.963324
smoothSolver:  Solving for Ux, Initial residual = 6.71648e-05, Final residual = 8.73672e-06, No Iterations 10
smoothSolver:  Solving for Uy, Initial residual = 0.000195374, Final residual = 9.91501e-06, No Iterations 16
DICPCG:  Solving for p, Initial residual = 0.00727063, Final residual = 0.000202657, No Iterations 77
time step continuity errors : sum local = 1.15588e-07, global = -6.37834e-22, cumulative = -7.44594e-19
DICPCG:  Solving for p, Initial residual = 0.00635779, Final residual = 9.41097e-07, No Iterations 114
time step continuity errors : sum local = 5.37425e-10, global = 1.19565e-19, cumulative = -6.25029e-19
ExecutionTime = 0.39 s  ClockTime = 1 s

Time = 0.4875

Courant Number mean: 0.225587 max: 0.96328
smoothSolver:  Solving for Ux, Initial residual = 4.29468e-05, Final residual = 9.31781e-06, No Iterations 9
smoothSolver:  Solving for Uy, Initial residual = 0.000103265, Final residual = 8.99129e-06, No Iterations 14
DICPCG:  Solving for p, Initial residual = 0.00357685, Final residual = 8.91954e-05, No Iterations 85
time step continuity errors : sum local = 5.08304e-08, global = -1.39437e-19, cumulative = -7.64466e-19
DICPCG:  Solving for p, Initial residual = 0.00311697, Final residual = 7.59063e-07, No Iterations 107
time step continuity errors : sum local = 4.3235e-10, global = 1.50049e-19, cumulative = -6.14417e-19
ExecutionTime = 0.42 s  ClockTime = 1 s

Time = 0.48875

Courant Number mean: 0.225595 max: 0.963296
smoothSolver:  Solving for Ux, Initial residual = 2.46044e-05, Final residual = 9.25843e-06, No Iterations 5
smoothSolver:  Solving for Uy, Initial residual = 6.75517e-05, Final residual = 8.99021e-06, No Iterations 12
DICPCG:  Solving for p, Initial residual = 0.00164237, Final residual = 4.57596e-05, No Iterations 75
time step continuity errors : sum local = 2.6135e-08, global = 1.48845e-19, cumulative = -4.65572e-19
DICPCG:  Solving for p, Initial residual = 0.00141708, Final residual = 9.81594e-07, No Iterations 97
time step continuity errors : sum local = 5.6726e-10, global = -2.41837e-19, cumulative = -7.07409e-19
ExecutionTime = 0.43 s  ClockTime = 1 s

Time = 0.49

Courant Number mean: 0.2256 max: 0.963291
smoothSolver:  Solving for Ux, Initial residual = 1.82045e-05, Final residual = 9.3282e-06, No Iterations 4
smoothSolver:  Solving for Uy, Initial residual = 4.74716e-05, Final residual = 9.38355e-06, No Iterations 10
DICPCG:  Solving for p, Initial residual = 0.000801215, Final residual = 1.98377e-05, No Iterations 88
time step continuity errors : sum local = 1.12985e-08, global = -2.59356e-19, cumulative = -9.66765e-19
DICPCG:  Solving for p, Initial residual = 0.000703585, Final residual = 9.65017e-07, No Iterations 103
time step continuity errors : sum local = 5.4981e-10, global = -2.0578e-19, cumulative = -1.17255e-18
ExecutionTime = 0.45 s  ClockTime = 1 s

Time = 0.49125

Courant Number mean: 0.225604 max: 0.963294
smoothSolver:  Solving for Ux, Initial residual = 1.50281e-05, Final residual = 9.37362e-06, No Iterations 3
smoothSolver:  Solving for Uy, Initial residual = 3.58503e-05, Final residual = 9.0439e-06, No Iterations 9
DICPCG:  Solving for p, Initial residual = 0.000472786, Final residual = 1.38108e-05, No Iterations 32
time step continuity errors : sum local = 9.58555e-09, global = 2.36103e-19, cumulative = -9.36442e-19
DICPCG:  Solving for p, Initial residual = 0.000435045, Final residual = 9.40443e-07, No Iterations 100
time step continuity errors : sum local = 5.35432e-10, global = -1.82921e-19, cumulative = -1.11936e-18
ExecutionTime = 0.47 s  ClockTime = 1 s

Time = 0.4925

Courant Number mean: 0.225608 max: 0.963295
smoothSolver:  Solving for Ux, Initial residual = 1.43556e-05, Final residual = 8.97276e-06, No Iterations 3
smoothSolver:  Solving for Uy, Initial residual = 3.23531e-05, Final residual = 9.58694e-06, No Iterations 8
DICPCG:  Solving for p, Initial residual = 0.000334624, Final residual = 9.00364e-06, No Iterations 92
time step continuity errors : sum local = 5.12614e-09, global = -5.9004e-20, cumulative = -1.17837e-18
DICPCG:  Solving for p, Initial residual = 0.00031584, Final residual = 9.05657e-07, No Iterations 101
time step continuity errors : sum local = 5.17075e-10, global = -7.31231e-20, cumulative = -1.25149e-18
ExecutionTime = 0.5 s  ClockTime = 1 s

Time = 0.49375

Courant Number mean: 0.225611 max: 0.963296
smoothSolver:  Solving for Ux, Initial residual = 1.22492e-05, Final residual = 8.89821e-06, No Iterations 2
smoothSolver:  Solving for Uy, Initial residual = 2.79882e-05, Final residual = 9.80618e-06, No Iterations 7
DICPCG:  Solving for p, Initial residual = 0.000287973, Final residual = 6.77489e-06, No Iterations 75
time step continuity errors : sum local = 3.86603e-09, global = 9.85453e-20, cumulative = -1.15295e-18
DICPCG:  Solving for p, Initial residual = 0.000280828, Final residual = 8.90702e-07, No Iterations 88
time step continuity errors : sum local = 5.08981e-10, global = 2.2505e-20, cumulative = -1.13044e-18
ExecutionTime = 0.51 s  ClockTime = 1 s

Time = 0.495

Courant Number mean: 0.225614 max: 0.963297
smoothSolver:  Solving for Ux, Initial residual = 1.12536e-05, Final residual = 9.61747e-06, No Iterations 1
smoothSolver:  Solving for Uy, Initial residual = 2.40452e-05, Final residual = 9.90069e-06, No Iterations 6
DICPCG:  Solving for p, Initial residual = 0.000284629, Final residual = 7.97352e-06, No Iterations 31
time step continuity errors : sum local = 4.87941e-09, global = 8.60625e-20, cumulative = -1.04438e-18
DICPCG:  Solving for p, Initial residual = 0.000281729, Final residual = 9.00989e-07, No Iterations 52
time step continuity errors : sum local = 6.06511e-10, global = 1.25916e-19, cumulative = -9.18461e-19
ExecutionTime = 0.53 s  ClockTime = 1 s

Time = 0.49625

Courant Number mean: 0.225616 max: 0.963298
smoothSolver:  Solving for Ux, Initial residual = 1.09335e-05, Final residual = 9.31176e-06, No Iterations 1
smoothSolver:  Solving for Uy, Initial residual = 2.1446e-05, Final residual = 8.8599e-06, No Iterations 6
DICPCG:  Solving for p, Initial residual = 0.000248305, Final residual = 7.06294e-06, No Iterations 42
time step continuity errors : sum local = 4.53882e-09, global = -2.52061e-19, cumulative = -1.17052e-18
DICPCG:  Solving for p, Initial residual = 0.000248187, Final residual = 8.84753e-07, No Iterations 98
time step continuity errors : sum local = 5.0428e-10, global = -7.00354e-20, cumulative = -1.24056e-18
ExecutionTime = 0.54 s  ClockTime = 1 s

Time = 0.4975

Courant Number mean: 0.225618 max: 0.963299
smoothSolver:  Solving for Ux, Initial residual = 1.04899e-05, Final residual = 8.92274e-06, No Iterations 1
smoothSolver:  Solving for Uy, Initial residual = 2.00919e-05, Final residual = 9.50415e-06, No Iterations 5
DICPCG:  Solving for p, Initial residual = 0.000206001, Final residual = 5.06552e-06, No Iterations 90
time step continuity errors : sum local = 2.89153e-09, global = -7.76805e-20, cumulative = -1.31824e-18
DICPCG:  Solving for p, Initial residual = 0.000204503, Final residual = 8.76388e-07, No Iterations 97
time step continuity errors : sum local = 4.9984e-10, global = 3.05141e-19, cumulative = -1.0131e-18
ExecutionTime = 0.56 s  ClockTime = 1 s

Time = 0.49875

Courant Number mean: 0.225619 max: 0.963299
smoothSolver:  Solving for Ux, Initial residual = 9.69481e-06, Final residual = 9.69481e-06, No Iterations 0
smoothSolver:  Solving for Uy, Initial residual = 1.87759e-05, Final residual = 9.01462e-06, No Iterations 5
DICPCG:  Solving for p, Initial residual = 0.000260719, Final residual = 7.07818e-06, No Iterations 31
time step continuity errors : sum local = 5.06315e-09, global = -1.75881e-19, cumulative = -1.18898e-18
DICPCG:  Solving for p, Initial residual = 0.000261223, Final residual = 9.67953e-07, No Iterations 85
time step continuity errors : sum local = 5.51037e-10, global = -6.81873e-19, cumulative = -1.87085e-18
ExecutionTime = 0.57 s  ClockTime = 1 s

Time = 0.5

Courant Number mean: 0.225621 max: 0.9633
smoothSolver:  Solving for Ux, Initial residual = 1.02734e-05, Final residual = 8.67502e-06, No Iterations 1
smoothSolver:  Solving for Uy, Initial residual = 1.82161e-05, Final residual = 9.77434e-06, No Iterations 4
DICPCG:  Solving for p, Initial residual = 0.000158489, Final residual = 4.10445e-06, No Iterations 92
time step continuity errors : sum local = 2.34087e-09, global = 2.19188e-20, cumulative = -1.84893e-18
DICPCG:  Solving for p, Initial residual = 0.000155025, Final residual = 9.9973e-07, No Iterations 98
time step continuity errors : sum local = 5.69871e-10, global = 2.67083e-19, cumulative = -1.58185e-18
ExecutionTime = 0.58 s  ClockTime = 1 s

Time = 0.50125

Courant Number mean: 0.225622 max: 0.9633
smoothSolver:  Solving for Ux, Initial residual = 9.01084e-06, Final residual = 9.01084e-06, No Iterations 0
smoothSolver:  Solving for Uy, Initial residual = 1.6865e-05, Final residual = 9.31619e-06, No Iterations 4
DICPCG:  Solving for p, Initial residual = 0.000203821, Final residual = 4.20046e-06, No Iterations 74
time step continuity errors : sum local = 2.39884e-09, global = 2.39923e-19, cumulative = -1.34193e-18
DICPCG:  Solving for p, Initial residual = 0.000203283, Final residual = 9.50726e-07, No Iterations 97
time step continuity errors : sum local = 5.42041e-10, global = 1.46927e-19, cumulative = -1.195e-18
ExecutionTime = 0.6 s  ClockTime = 1 s

Time = 0.5025

Courant Number mean: 0.225623 max: 0.963301
smoothSolver:  Solving for Ux, Initial residual = 8.92772e-06, Final residual = 8.92772e-06, No Iterations 0
smoothSolver:  Solving for Uy, Initial residual = 1.55457e-05, Final residual = 9.82053e-06, No Iterations 3
DICPCG:  Solving for p, Initial residual = 0.000156332, Final residual = 4.29063e-06, No Iterations 31
time step continuity errors : sum local = 2.95132e-09, global = 8.81968e-20, cumulative = -1.1068e-18
DICPCG:  Solving for p, Initial residual = 0.00015683, Final residual = 8.93033e-07, No Iterations 84
time step continuity errors : sum local = 5.08103e-10, global = -8.2247e-20, cumulative = -1.18905e-18
ExecutionTime = 0.61 s  ClockTime = 1 s

Time = 0.50375

Courant Number mean: 0.225624 max: 0.963302
smoothSolver:  Solving for Ux, Initial residual = 9.02157e-06, Final residual = 9.02157e-06, No Iterations 0
smoothSolver:  Solving for Uy, Initial residual = 1.48528e-05, Final residual = 9.33737e-06, No Iterations 3
DICPCG:  Solving for p, Initial residual = 0.000154073, Final residual = 4.55969e-06, No Iterations 90
time step continuity errors : sum local = 2.60283e-09, global = 7.57096e-21, cumulative = -1.18148e-18
DICPCG:  Solving for p, Initial residual = 0.000153424, Final residual = 9.1955e-07, No Iterations 96
time step continuity errors : sum local = 5.24206e-10, global = -3.47831e-20, cumulative = -1.21626e-18
ExecutionTime = 0.62 s  ClockTime = 1 s

Time = 0.505

Courant Number mean: 0.225625 max: 0.963302
smoothSolver:  Solving for Ux, Initial residual = 8.51548e-06, Final residual = 8.51548e-06, No Iterations 0
smoothSolver:  Solving for Uy, Initial residual = 1.43823e-05, Final residual = 9.13362e-06, No Iterations 3
DICPCG:  Solving for p, Initial residual = 0.000147452, Final residual = 4.38206e-06, No Iterations 32
time step continuity errors : sum local = 3.12619e-09, global = -9.49736e-20, cumulative = -1.31123e-18
DICPCG:  Solving for p, Initial residual = 0.00014747, Final residual = 9.11088e-07, No Iterations 82
time step continuity errors : sum local = 5.18624e-10, global = -3.25118e-19, cumulative = -1.63635e-18
ExecutionTime = 0.64 s  ClockTime = 1 s

Time = 0.50625

Courant Number mean: 0.225626 max: 0.963302
smoothSolver:  Solving for Ux, Initial residual = 8.74473e-06, Final residual = 8.74473e-06, No Iterations 0
smoothSolver:  Solving for Uy, Initial residual = 1.37715e-05, Final residual = 9.99073e-06, No Iterations 2
DICPCG:  Solving for p, Initial residual = 0.000106956, Final residual = 2.53089e-06, No Iterations 91
time step continuity errors : sum local = 1.44741e-09, global = -2.50885e-19, cumulative = -1.88724e-18
DICPCG:  Solving for p, Initial residual = 0.000106111, Final residual = 7.0857e-07, No Iterations 96
time step continuity errors : sum local = 4.04414e-10, global = -1.06823e-19, cumulative = -1.99406e-18
ExecutionTime = 0.67 s  ClockTime = 1 s

Time = 0.5075

Courant Number mean: 0.225626 max: 0.963302
smoothSolver:  Solving for Ux, Initial residual = 8.12652e-06, Final residual = 8.12652e-06, No Iterations 0
smoothSolver:  Solving for Uy, Initial residual = 1.34241e-05, Final residual = 9.88717e-06, No Iterations 2
DICPCG:  Solving for p, Initial residual = 0.000100634, Final residual = 2.9401e-06, No Iterations 73
time step continuity errors : sum local = 1.67831e-09, global = 2.01391e-19, cumulative = -1.79267e-18
DICPCG:  Solving for p, Initial residual = 0.000100326, Final residual = 9.52026e-07, No Iterations 80
time step continuity errors : sum local = 5.42224e-10, global = 3.2079e-19, cumulative = -1.47188e-18
ExecutionTime = 0.69 s  ClockTime = 1 s

Time = 0.50875

Courant Number mean: 0.225627 max: 0.963302
smoothSolver:  Solving for Ux, Initial residual = 7.9728e-06, Final residual = 7.9728e-06, No Iterations 0
smoothSolver:  Solving for Uy, Initial residual = 1.29006e-05, Final residual = 9.50326e-06, No Iterations 2
DICPCG:  Solving for p, Initial residual = 9.68897e-05, Final residual = 2.85423e-06, No Iterations 32
time step continuity errors : sum local = 1.96896e-09, global = -5.95462e-20, cumulative = -1.53142e-18
DICPCG:  Solving for p, Initial residual = 9.73474e-05, Final residual = 9.82288e-07, No Iterations 80
time step continuity errors : sum local = 5.60071e-10, global = 1.96941e-19, cumulative = -1.33448e-18
ExecutionTime = 0.7 s  ClockTime = 1 s

Time = 0.51

Courant Number mean: 0.225628 max: 0.963303
smoothSolver:  Solving for Ux, Initial residual = 8.0295e-06, Final residual = 8.0295e-06, No Iterations 0
smoothSolver:  Solving for Uy, Initial residual = 1.22933e-05, Final residual = 9.01229e-06, No Iterations 2
DICPCG:  Solving for p, Initial residual = 9.61489e-05, Final residual = 2.82169e-06, No Iterations 32
time step continuity errors : sum local = 1.84776e-09, global = 3.78257e-20, cumulative = -1.29666e-18
DICPCG:  Solving for p, Initial residual = 9.5403e-05, Final residual = 9.75576e-07, No Iterations 85
time step continuity errors : sum local = 5.63104e-10, global = 2.31661e-20, cumulative = -1.27349e-18
ExecutionTime = 0.71 s  ClockTime = 1 s

Time = 0.51125

Courant Number mean: 0.225628 max: 0.963303
smoothSolver:  Solving for Ux, Initial residual = 7.6444e-06, Final residual = 7.6444e-06, No Iterations 0
smoothSolver:  Solving for Uy, Initial residual = 1.28276e-05, Final residual = 9.43576e-06, No Iterations 2
DICPCG:  Solving for p, Initial residual = 9.39036e-05, Final residual = 2.5806e-06, No Iterations 88
time step continuity errors : sum local = 1.47102e-09, global = 2.36247e-19, cumulative = -1.03724e-18
DICPCG:  Solving for p, Initial residual = 9.34645e-05, Final residual = 9.72437e-07, No Iterations 95
time step continuity errors : sum local = 5.54246e-10, global = 3.3417e-19, cumulative = -7.03075e-19
ExecutionTime = 0.74 s  ClockTime = 1 s

Time = 0.5125

Courant Number mean: 0.225629 max: 0.963303
smoothSolver:  Solving for Ux, Initial residual = 7.55597e-06, Final residual = 7.55597e-06, No Iterations 0
smoothSolver:  Solving for Uy, Initial residual = 1.17874e-05, Final residual = 8.69209e-06, No Iterations 2
DICPCG:  Solving for p, Initial residual = 8.96868e-05, Final residual = 2.5568e-06, No Iterations 32
time step continuity errors : sum local = 1.72963e-09, global = -1.08622e-20, cumulative = -7.13937e-19
DICPCG:  Solving for p, Initial residual = 8.99404e-05, Final residual = 8.9118e-07, No Iterations 51
time step continuity errors : sum local = 6.26979e-10, global = -1.10305e-19, cumulative = -8.24242e-19
ExecutionTime = 0.75 s  ClockTime = 1 s

Time = 0.51375

Courant Number mean: 0.22563 max: 0.963303
smoothSolver:  Solving for Ux, Initial residual = 7.48604e-06, Final residual = 7.48604e-06, No Iterations 0
smoothSolver:  Solving for Uy, Initial residual = 1.12274e-05, Final residual = 9.58061e-06, No Iterations 1
DICPCG:  Solving for p, Initial residual = 4.71957e-05, Final residual = 1.13958e-06, No Iterations 31
time step continuity errors : sum local = 7.65133e-10, global = -1.23451e-19, cumulative = -9.47693e-19
DICPCG:  Solving for p, Initial residual = 4.71654e-05, Final residual = 9.91171e-07, No Iterations 31
time step continuity errors : sum local = 5.93645e-10, global = -2.59044e-19, cumulative = -1.20674e-18
ExecutionTime = 0.75 s  ClockTime = 1 s

Time = 0.515

Courant Number mean: 0.22563 max: 0.963303
smoothSolver:  Solving for Ux, Initial residual = 7.2885e-06, Final residual = 7.2885e-06, No Iterations 0
smoothSolver:  Solving for Uy, Initial residual = 1.10673e-05, Final residual = 9.49381e-06, No Iterations 1
DICPCG:  Solving for p, Initial residual = 4.6387e-05, Final residual = 9.40829e-07, No Iterations 31
time step continuity errors : sum local = 6.36208e-10, global = 1.7623e-19, cumulative = -1.03051e-18
DICPCG:  Solving for p, Initial residual = 4.63962e-05, Final residual = 8.76278e-07, No Iterations 31
time step continuity errors : sum local = 5.12548e-10, global = -6.65848e-20, cumulative = -1.09709e-18
ExecutionTime = 0.77 s  ClockTime = 1 s

Time = 0.51625

Courant Number mean: 0.22563 max: 0.963303
smoothSolver:  Solving for Ux, Initial residual = 7.15318e-06, Final residual = 7.15318e-06, No Iterations 0
smoothSolver:  Solving for Uy, Initial residual = 1.08593e-05, Final residual = 9.32822e-06, No Iterations 1
DICPCG:  Solving for p, Initial residual = 4.52518e-05, Final residual = 9.63234e-07, No Iterations 31
time step continuity errors : sum local = 6.35253e-10, global = -3.4585e-19, cumulative = -1.44294e-18
DICPCG:  Solving for p, Initial residual = 4.5317e-05, Final residual = 8.81786e-07, No Iterations 31
time step continuity errors : sum local = 5.03218e-10, global = 3.5904e-20, cumulative = -1.40704e-18
ExecutionTime = 0.77 s  ClockTime = 1 s

Time = 0.5175

Courant Number mean: 0.225631 max: 0.963303
smoothSolver:  Solving for Ux, Initial residual = 7.0357e-06, Final residual = 7.0357e-06, No Iterations 0
smoothSolver:  Solving for Uy, Initial residual = 1.06455e-05, Final residual = 9.14932e-06, No Iterations 1
DICPCG:  Solving for p, Initial residual = 4.43711e-05, Final residual = 8.6433e-07, No Iterations 31
time step continuity errors : sum local = 5.71937e-10, global = -2.81451e-20, cumulative = -1.43518e-18
DICPCG:  Solving for p, Initial residual = 4.44494e-05, Final residual = 8.33861e-07, No Iterations 31
time step continuity errors : sum local = 4.7696e-10, global = 8.22145e-20, cumulative = -1.35297e-18
ExecutionTime = 0.78 s  ClockTime = 1 s

Time = 0.51875

Courant Number mean: 0.225631 max: 0.963303
smoothSolver:  Solving for Ux, Initial residual = 6.92373e-06, Final residual = 6.92373e-06, No Iterations 0
smoothSolver:  Solving for Uy, Initial residual = 1.0447e-05, Final residual = 8.98276e-06, No Iterations 1
DICPCG:  Solving for p, Initial residual = 4.35372e-05, Final residual = 9.2302e-07, No Iterations 31
time step continuity errors : sum local = 5.94315e-10, global = 6.69011e-20, cumulative = -1.28607e-18
DICPCG:  Solving for p, Initial residual = 4.35845e-05, Final residual = 8.35304e-07, No Iterations 31
time step continuity errors : sum local = 4.89136e-10, global = -1.35225e-19, cumulative = -1.42129e-18
ExecutionTime = 0.79 s  ClockTime = 2 s

Time = 0.52

Courant Number mean: 0.225632 max: 0.963303
smoothSolver:  Solving for Ux, Initial residual = 6.81747e-06, Final residual = 6.81747e-06, No Iterations 0
smoothSolver:  Solving for Uy, Initial residual = 1.02349e-05, Final residual = 8.80217e-06, No Iterations 1
DICPCG:  Solving for p, Initial residual = 4.26673e-05, Final residual = 1.24331e-06, No Iterations 30
time step continuity errors : sum local = 7.72719e-10, global = 2.04688e-19, cumulative = -1.2166e-18
DICPCG:  Solving for p, Initial residual = 4.27993e-05, Final residual = 8.13679e-07, No Iterations 31
time step continuity errors : sum local = 4.7376e-10, global = -1.48632e-19, cumulative = -1.36524e-18
ExecutionTime = 0.8 s  ClockTime = 2 s

Time = 0.52125

Courant Number mean: 0.225632 max: 0.963304
smoothSolver:  Solving for Ux, Initial residual = 6.71563e-06, Final residual = 6.71563e-06, No Iterations 0
smoothSolver:  Solving for Uy, Initial residual = 1.00499e-05, Final residual = 8.64461e-06, No Iterations 1
DICPCG:  Solving for p, Initial residual = 4.19789e-05, Final residual = 9.818e-07, No Iterations 31
time step continuity errors : sum local = 6.13266e-10, global = 1.22845e-19, cumulative = -1.24239e-18
DICPCG:  Solving for p, Initial residual = 4.19877e-05, Final residual = 8.41243e-07, No Iterations 31
time step continuity errors : sum local = 5.05571e-10, global = -8.20056e-21, cumulative = -1.25059e-18
ExecutionTime = 0.83 s  ClockTime = 2 s

Time = 0.5225

Courant Number mean: 0.225632 max: 0.963304
smoothSolver:  Solving for Ux, Initial residual = 6.6125e-06, Final residual = 6.6125e-06, No Iterations 0
smoothSolver:  Solving for Uy, Initial residual = 9.84704e-06, Final residual = 9.84704e-06, No Iterations 0
DICPCG:  Solving for p, Initial residual = 1.9003e-06, Final residual = 7.15246e-07, No Iterations 20
time step continuity errors : sum local = 4.61014e-10, global = -5.25294e-20, cumulative = -1.30312e-18
DICPCG:  Solving for p, Initial residual = 1.2852e-06, Final residual = 9.44531e-07, No Iterations 1
time step continuity errors : sum local = 5.98553e-10, global = 3.79914e-19, cumulative = -9.23207e-19
ExecutionTime = 0.83 s  ClockTime = 2 s

Time = 0.52375

Courant Number mean: 0.225633 max: 0.963304
smoothSolver:  Solving for Ux, Initial residual = 6.44194e-06, Final residual = 6.44194e-06, No Iterations 0
smoothSolver:  Solving for Uy, Initial residual = 9.93738e-06, Final residual = 9.93738e-06, No Iterations 0
DICPCG:  Solving for p, Initial residual = 1.33699e-06, Final residual = 9.53761e-07, No Iterations 8
time step continuity errors : sum local = 6.24669e-10, global = -1.10345e-22, cumulative = -9.23318e-19
DICPCG:  Solving for p, Initial residual = 1.71922e-06, Final residual = 9.65602e-07, No Iterations 17
time step continuity errors : sum local = 6.56026e-10, global = -2.79695e-19, cumulative = -1.20301e-18
ExecutionTime = 0.84 s  ClockTime = 2 s

Time = 0.525

Courant Number mean: 0.225633 max: 0.963303
smoothSolver:  Solving for Ux, Initial residual = 6.33953e-06, Final residual = 6.33953e-06, No Iterations 0
smoothSolver:  Solving for Uy, Initial residual = 9.84331e-06, Final residual = 9.84331e-06, No Iterations 0
DICPCG:  Solving for p, Initial residual = 1.52458e-06, Final residual = 9.28792e-07, No Iterations 16
time step continuity errors : sum local = 6.24088e-10, global = 2.66405e-20, cumulative = -1.17637e-18
DICPCG:  Solving for p, Initial residual = 1.44972e-06, Final residual = 8.89685e-07, No Iterations 8
time step continuity errors : sum local = 6.04511e-10, global = -2.49002e-19, cumulative = -1.42537e-18
ExecutionTime = 0.86 s  ClockTime = 2 s

Time = 0.52625

Courant Number mean: 0.225633 max: 0.963303
smoothSolver:  Solving for Ux, Initial residual = 6.23104e-06, Final residual = 6.23104e-06, No Iterations 0
smoothSolver:  Solving for Uy, Initial residual = 9.91356e-06, Final residual = 9.91356e-06, No Iterations 0
DICPCG:  Solving for p, Initial residual = 1.49559e-06, Final residual = 8.08982e-07, No Iterations 4
time step continuity errors : sum local = 5.59983e-10, global = -2.39135e-19, cumulative = -1.66451e-18
DICPCG:  Solving for p, Initial residual = 1.27639e-06, Final residual = 6.83751e-07, No Iterations 2
time step continuity errors : sum local = 4.88174e-10, global = 1.00718e-19, cumulative = -1.56379e-18
ExecutionTime = 0.86 s  ClockTime = 2 s

Time = 0.5275

Courant Number mean: 0.225633 max: 0.963304
smoothSolver:  Solving for Ux, Initial residual = 6.17041e-06, Final residual = 6.17041e-06, No Iterations 0
smoothSolver:  Solving for Uy, Initial residual = 9.76051e-06, Final residual = 9.76051e-06, No Iterations 0
DICPCG:  Solving for p, Initial residual = 1.32141e-06, Final residual = 6.42904e-07, No Iterations 1
time step continuity errors : sum local = 4.64363e-10, global = -2.26815e-19, cumulative = -1.7906e-18
DICPCG:  Solving for p, Initial residual = 9.65154e-07, Final residual = 9.65154e-07, No Iterations 0
time step continuity errors : sum local = 6.47851e-10, global = 2.36713e-20, cumulative = -1.76693e-18
ExecutionTime = 0.87 s  ClockTime = 2 s

Time = 0.52875

Courant Number mean: 0.225634 max: 0.963304
smoothSolver:  Solving for Ux, Initial residual = 6.10313e-06, Final residual = 6.10313e-06, No Iterations 0
smoothSolver:  Solving for Uy, Initial residual = 9.66862e-06, Final residual = 9.66862e-06, No Iterations 0
DICPCG:  Solving for p, Initial residual = 1.38805e-06, Final residual = 8.86219e-07, No Iterations 3
time step continuity errors : sum local = 6.05049e-10, global = -8.32186e-20, cumulative = -1.85015e-18
DICPCG:  Solving for p, Initial residual = 1.68478e-06, Final residual = 6.73999e-07, No Iterations 2
time step continuity errors : sum local = 4.847e-10, global = -2.50623e-19, cumulative = -2.10078e-18
ExecutionTime = 0.87 s  ClockTime = 2 s

Time = 0.53

Courant Number mean: 0.225634 max: 0.963304
smoothSolver:  Solving for Ux, Initial residual = 6.00554e-06, Final residual = 6.00554e-06, No Iterations 0
smoothSolver:  Solving for Uy, Initial residual = 9.64122e-06, Final residual = 9.64122e-06, No Iterations 0
DICPCG:  Solving for p, Initial residual = 1.35972e-06, Final residual = 7.9446e-07, No Iterations 1
time step continuity errors : sum local = 5.52204e-10, global = 1.3277e-19, cumulative = -1.96801e-18
DICPCG:  Solving for p, Initial residual = 1.17039e-06, Final residual = 7.72895e-07, No Iterations 1
time step continuity errors : sum local = 5.40497e-10, global = -9.15248e-20, cumulative = -2.05953e-18
ExecutionTime = 0.88 s  ClockTime = 2 s

Time = 0.53125

Courant Number mean: 0.225634 max: 0.963304
smoothSolver:  Solving for Ux, Initial residual = 5.93323e-06, Final residual = 5.93323e-06, No Iterations 0
smoothSolver:  Solving for Uy, Initial residual = 9.55628e-06, Final residual = 9.55628e-06, No Iterations 0
DICPCG:  Solving for p, Initial residual = 1.04412e-06, Final residual = 8.9636e-07, No Iterations 1
time step continuity errors : sum local = 6.10861e-10, global = 6.55487e-20, cumulative = -1.99398e-18
DICPCG:  Solving for p, Initial residual = 1.08387e-06, Final residual = 9.67338e-07, No Iterations 1
time step continuity errors : sum local = 6.51378e-10, global = -1.56419e-19, cumulative = -2.1504e-18
ExecutionTime = 0.88 s  ClockTime = 2 s

Time = 0.5325

Courant Number mean: 0.225634 max: 0.963304
smoothSolver:  Solving for Ux, Initial residual = 5.86291e-06, Final residual = 5.86291e-06, No Iterations 0
smoothSolver:  Solving for Uy, Initial residual = 9.47236e-06, Final residual = 9.47236e-06, No Iterations 0
DICPCG:  Solving for p, Initial residual = 1.21444e-06, Final residual = 9.96826e-07, No Iterations 14
time step continuity errors : sum local = 6.60329e-10, global = 8.88922e-20, cumulative = -2.06151e-18
DICPCG:  Solving for p, Initial residual = 1.74554e-06, Final residual = 9.74382e-07, No Iterations 8
time step continuity errors : sum local = 6.45113e-10, global = -6.0585e-20, cumulative = -2.12209e-18
ExecutionTime = 0.89 s  ClockTime = 2 s

Time = 0.53375

Courant Number mean: 0.225635 max: 0.963304
smoothSolver:  Solving for Ux, Initial residual = 5.82158e-06, Final residual = 5.82158e-06, No Iterations 0
smoothSolver:  Solving for Uy, Initial residual = 9.19559e-06, Final residual = 9.19559e-06, No Iterations 0
DICPCG:  Solving for p, Initial residual = 1.65349e-06, Final residual = 9.80758e-07, No Iterations 11
time step continuity errors : sum local = 6.51268e-10, global = -8.79401e-20, cumulative = -2.21003e-18
DICPCG:  Solving for p, Initial residual = 1.7119e-06, Final residual = 8.08328e-07, No Iterations 6
time step continuity errors : sum local = 5.55271e-10, global = -1.52679e-19, cumulative = -2.36271e-18
ExecutionTime = 0.9 s  ClockTime = 2 s

Time = 0.535

Courant Number mean: 0.225635 max: 0.963304
smoothSolver:  Solving for Ux, Initial residual = 5.70684e-06, Final residual = 5.70684e-06, No Iterations 0
smoothSolver:  Solving for Uy, Initial residual = 9.28606e-06, Final residual = 9.28606e-06, No Iterations 0
DICPCG:  Solving for p, Initial residual = 1.49622e-06, Final residual = 7.28209e-07, No Iterations 3
time step continuity errors : sum local = 5.08641e-10, global = -6.93993e-20, cumulative = -2.43211e-18
DICPCG:  Solving for p, Initial residual = 1.3281e-06, Final residual = 7.84872e-07, No Iterations 2
time step continuity errors : sum local = 5.40369e-10, global = 2.5441e-19, cumulative = -2.1777e-18
ExecutionTime = 0.9 s  ClockTime = 2 s

Time = 0.53625

Courant Number mean: 0.225635 max: 0.963304
smoothSolver:  Solving for Ux, Initial residual = 5.65144e-06, Final residual = 5.65144e-06, No Iterations 0
smoothSolver:  Solving for Uy, Initial residual = 9.20432e-06, Final residual = 9.20432e-06, No Iterations 0
DICPCG:  Solving for p, Initial residual = 1.49581e-06, Final residual = 9.82831e-07, No Iterations 9
time step continuity errors : sum local = 6.47506e-10, global = -2.38109e-19, cumulative = -2.41581e-18
DICPCG:  Solving for p, Initial residual = 1.51069e-06, Final residual = 8.00949e-07, No Iterations 5
time step continuity errors : sum local = 5.36306e-10, global = -2.57462e-20, cumulative = -2.44156e-18
ExecutionTime = 0.91 s  ClockTime = 2 s

Time = 0.5375

Courant Number mean: 0.225635 max: 0.963304
smoothSolver:  Solving for Ux, Initial residual = 5.59781e-06, Final residual = 5.59781e-06, No Iterations 0
smoothSolver:  Solving for Uy, Initial residual = 9.00132e-06, Final residual = 9.00132e-06, No Iterations 0
DICPCG:  Solving for p, Initial residual = 1.39956e-06, Final residual = 9.67771e-07, No Iterations 2
time step continuity errors : sum local = 6.26402e-10, global = 6.96979e-20, cumulative = -2.37186e-18
DICPCG:  Solving for p, Initial residual = 1.66049e-06, Final residual = 9.73462e-07, No Iterations 2
time step continuity errors : sum local = 6.32939e-10, global = 6.00191e-22, cumulative = -2.37126e-18
ExecutionTime = 0.91 s  ClockTime = 2 s

Time = 0.53875

Courant Number mean: 0.225635 max: 0.963304
smoothSolver:  Solving for Ux, Initial residual = 5.53129e-06, Final residual = 5.53129e-06, No Iterations 0
smoothSolver:  Solving for Uy, Initial residual = 8.95918e-06, Final residual = 8.95918e-06, No Iterations 0
DICPCG:  Solving for p, Initial residual = 1.74227e-06, Final residual = 8.56298e-07, No Iterations 5
time step continuity errors : sum local = 5.64496e-10, global = 7.11623e-20, cumulative = -2.3001e-18
DICPCG:  Solving for p, Initial residual = 1.44972e-06, Final residual = 7.18105e-07, No Iterations 3
time step continuity errors : sum local = 4.86438e-10, global = 3.33033e-19, cumulative = -1.96706e-18
ExecutionTime = 0.91 s  ClockTime = 2 s

Time = 0.54

Courant Number mean: 0.225636 max: 0.963304
smoothSolver:  Solving for Ux, Initial residual = 5.44549e-06, Final residual = 5.44549e-06, No Iterations 0
smoothSolver:  Solving for Uy, Initial residual = 9.02446e-06, Final residual = 9.02446e-06, No Iterations 0
DICPCG:  Solving for p, Initial residual = 1.3775e-06, Final residual = 8.38443e-07, No Iterations 2
time step continuity errors : sum local = 5.56015e-10, global = 1.77035e-19, cumulative = -1.79003e-18
DICPCG:  Solving for p, Initial residual = 1.50086e-06, Final residual = 7.97156e-07, No Iterations 1
time step continuity errors : sum local = 5.30643e-10, global = -5.51873e-20, cumulative = -1.84521e-18
ExecutionTime = 0.91 s  ClockTime = 2 s

Time = 0.54125

Courant Number mean: 0.225636 max: 0.963304
smoothSolver:  Solving for Ux, Initial residual = 5.37827e-06, Final residual = 5.37827e-06, No Iterations 0
smoothSolver:  Solving for Uy, Initial residual = 8.90082e-06, Final residual = 8.90082e-06, No Iterations 0
DICPCG:  Solving for p, Initial residual = 1.17103e-06, Final residual = 7.45302e-07, No Iterations 1
time step continuity errors : sum local = 5.00843e-10, global = -1.25531e-19, cumulative = -1.97075e-18
DICPCG:  Solving for p, Initial residual = 1.00247e-06, Final residual = 9.36227e-07, No Iterations 1
time step continuity errors : sum local = 6.09771e-10, global = -4.27515e-20, cumulative = -2.0135e-18
ExecutionTime = 0.92 s  ClockTime = 2 s

Time = 0.5425

Courant Number mean: 0.225636 max: 0.963304
smoothSolver:  Solving for Ux, Initial residual = 5.31649e-06, Final residual = 5.31649e-06, No Iterations 0
smoothSolver:  Solving for Uy, Initial residual = 8.81376e-06, Final residual = 8.81376e-06, No Iterations 0
DICPCG:  Solving for p, Initial residual = 1.14429e-06, Final residual = 9.81231e-07, No Iterations 1
time step continuity errors : sum local = 6.35646e-10, global = -5.02044e-21, cumulative = -2.01852e-18
DICPCG:  Solving for p, Initial residual = 1.22859e-06, Final residual = 9.82622e-07, No Iterations 13
time step continuity errors : sum local = 6.39027e-10, global = 3.80425e-19, cumulative = -1.63809e-18
ExecutionTime = 0.92 s  ClockTime = 2 s

Time = 0.54375

Courant Number mean: 0.225636 max: 0.963304
smoothSolver:  Solving for Ux, Initial residual = 5.29575e-06, Final residual = 5.29575e-06, No Iterations 0
smoothSolver:  Solving for Uy, Initial residual = 8.39051e-06, Final residual = 8.39051e-06, No Iterations 0
DICPCG:  Solving for p, Initial residual = 1.75576e-06, Final residual = 9.59671e-07, No Iterations 8
time step continuity errors : sum local = 6.25856e-10, global = 1.22155e-19, cumulative = -1.51594e-18
DICPCG:  Solving for p, Initial residual = 1.69923e-06, Final residual = 8.54221e-07, No Iterations 7
time step continuity errors : sum local = 5.63173e-10, global = 2.81535e-19, cumulative = -1.2344e-18
ExecutionTime = 0.93 s  ClockTime = 2 s

Time = 0.545

Courant Number mean: 0.225636 max: 0.963304
smoothSolver:  Solving for Ux, Initial residual = 5.21232e-06, Final residual = 5.21232e-06, No Iterations 0
smoothSolver:  Solving for Uy, Initial residual = 8.45191e-06, Final residual = 8.45191e-06, No Iterations 0
DICPCG:  Solving for p, Initial residual = 1.49216e-06, Final residual = 8.39531e-07, No Iterations 10
time step continuity errors : sum local = 5.56848e-10, global = 1.00706e-19, cumulative = -1.1337e-18
DICPCG:  Solving for p, Initial residual = 1.39437e-06, Final residual = 8.2053e-07, No Iterations 5
time step continuity errors : sum local = 5.41662e-10, global = -2.40767e-19, cumulative = -1.37446e-18
ExecutionTime = 0.93 s  ClockTime = 2 s

Time = 0.54625

Courant Number mean: 0.225637 max: 0.963304
smoothSolver:  Solving for Ux, Initial residual = 5.14554e-06, Final residual = 5.14554e-06, No Iterations 0
smoothSolver:  Solving for Uy, Initial residual = 8.4864e-06, Final residual = 8.4864e-06, No Iterations 0
DICPCG:  Solving for p, Initial residual = 1.43807e-06, Final residual = 7.87443e-07, No Iterations 3
time step continuity errors : sum local = 5.20556e-10, global = -4.90754e-20, cumulative = -1.42354e-18
DICPCG:  Solving for p, Initial residual = 1.40267e-06, Final residual = 8.45854e-07, No Iterations 2
time step continuity errors : sum local = 5.54653e-10, global = 2.15422e-19, cumulative = -1.20812e-18
ExecutionTime = 0.93 s  ClockTime = 2 s

Time = 0.5475

Courant Number mean: 0.225637 max: 0.963304
smoothSolver:  Solving for Ux, Initial residual = 5.06278e-06, Final residual = 5.06278e-06, No Iterations 0
smoothSolver:  Solving for Uy, Initial residual = 8.44245e-06, Final residual = 8.44245e-06, No Iterations 0
DICPCG:  Solving for p, Initial residual = 1.54175e-06, Final residual = 9.44169e-07, No Iterations 9
time step continuity errors : sum local = 6.02853e-10, global = 2.37041e-20, cumulative = -1.18441e-18
DICPCG:  Solving for p, Initial residual = 1.5258e-06, Final residual = 7.86863e-07, No Iterations 5
time step continuity errors : sum local = 5.05203e-10, global = 1.0794e-19, cumulative = -1.07647e-18
ExecutionTime = 0.94 s  ClockTime = 2 s

Time = 0.54875

Courant Number mean: 0.225637 max: 0.963304
smoothSolver:  Solving for Ux, Initial residual = 5.02904e-06, Final residual = 5.02904e-06, No Iterations 0
smoothSolver:  Solving for Uy, Initial residual = 8.27133e-06, Final residual = 8.27133e-06, No Iterations 0
DICPCG:  Solving for p, Initial residual = 1.45478e-06, Final residual = 9.6948e-07, No Iterations 2
time step continuity errors : sum local = 6.05861e-10, global = 2.54996e-19, cumulative = -8.21476e-19
DICPCG:  Solving for p, Initial residual = 1.71221e-06, Final residual = 9.52945e-07, No Iterations 1
time step continuity errors : sum local = 5.97271e-10, global = -1.25014e-19, cumulative = -9.4649e-19
ExecutionTime = 0.94 s  ClockTime = 2 s

Time = 0.55

Courant Number mean: 0.225637 max: 0.963304
smoothSolver:  Solving for Ux, Initial residual = 4.96706e-06, Final residual = 4.96706e-06, No Iterations 0
smoothSolver:  Solving for Uy, Initial residual = 8.2216e-06, Final residual = 8.2216e-06, No Iterations 0
DICPCG:  Solving for p, Initial residual = 1.466e-06, Final residual = 9.88961e-07, No Iterations 1
time step continuity errors : sum local = 6.17728e-10, global = 2.19789e-20, cumulative = -9.24511e-19
DICPCG:  Solving for p, Initial residual = 1.38044e-06, Final residual = 9.35971e-07, No Iterations 6
time step continuity errors : sum local = 5.87961e-10, global = -1.35402e-21, cumulative = -9.25865e-19
ExecutionTime = 0.94 s  ClockTime = 2 s

Time = 0.55125

Courant Number mean: 0.225638 max: 0.963304
smoothSolver:  Solving for Ux, Initial residual = 4.85061e-06, Final residual = 4.85061e-06, No Iterations 0
smoothSolver:  Solving for Uy, Initial residual = 8.26413e-06, Final residual = 8.26413e-06, No Iterations 0
DICPCG:  Solving for p, Initial residual = 1.66488e-06, Final residual = 9.0927e-07, No Iterations 4
time step continuity errors : sum local = 5.75033e-10, global = -1.61842e-19, cumulative = -1.08771e-18
DICPCG:  Solving for p, Initial residual = 1.61927e-06, Final residual = 8.17751e-07, No Iterations 2
time step continuity errors : sum local = 5.25217e-10, global = -4.66024e-20, cumulative = -1.13431e-18
ExecutionTime = 0.95 s  ClockTime = 2 s

Time = 0.5525

Courant Number mean: 0.225638 max: 0.963305
smoothSolver:  Solving for Ux, Initial residual = 4.83647e-06, Final residual = 4.83647e-06, No Iterations 0
smoothSolver:  Solving for Uy, Initial residual = 8.16163e-06, Final residual = 8.16163e-06, No Iterations 0
DICPCG:  Solving for p, Initial residual = 1.57529e-06, Final residual = 9.49523e-07, No Iterations 2
time step continuity errors : sum local = 5.98336e-10, global = -3.07719e-19, cumulative = -1.44203e-18
DICPCG:  Solving for p, Initial residual = 1.53809e-06, Final residual = 8.94483e-07, No Iterations 1
time step continuity errors : sum local = 5.6847e-10, global = 7.33425e-20, cumulative = -1.36869e-18
ExecutionTime = 0.95 s  ClockTime = 2 s

Time = 0.55375

Courant Number mean: 0.225638 max: 0.963305
smoothSolver:  Solving for Ux, Initial residual = 4.7713e-06, Final residual = 4.7713e-06, No Iterations 0
smoothSolver:  Solving for Uy, Initial residual = 8.06887e-06, Final residual = 8.06887e-06, No Iterations 0
DICPCG:  Solving for p, Initial residual = 1.29283e-06, Final residual = 7.72891e-07, No Iterations 11
time step continuity errors : sum local = 5.04321e-10, global = 2.64788e-19, cumulative = -1.1039e-18
DICPCG:  Solving for p, Initial residual = 1.36059e-06, Final residual = 9.82561e-07, No Iterations 6
time step continuity errors : sum local = 6.20488e-10, global = 5.3114e-20, cumulative = -1.05078e-18
ExecutionTime = 0.95 s  ClockTime = 2 s

Time = 0.555

Courant Number mean: 0.225638 max: 0.963305
smoothSolver:  Solving for Ux, Initial residual = 4.72328e-06, Final residual = 4.72328e-06, No Iterations 0
smoothSolver:  Solving for Uy, Initial residual = 7.95234e-06, Final residual = 7.95234e-06, No Iterations 0
DICPCG:  Solving for p, Initial residual = 1.69747e-06, Final residual = 9.9388e-07, No Iterations 4
time step continuity errors : sum local = 6.26299e-10, global = 3.49741e-19, cumulative = -7.01044e-19
DICPCG:  Solving for p, Initial residual = 1.72484e-06, Final residual = 9.41939e-07, No Iterations 3
time step continuity errors : sum local = 5.96563e-10, global = 1.66693e-19, cumulative = -5.34351e-19
ExecutionTime = 0.95 s  ClockTime = 2 s

Time = 0.55625

Courant Number mean: 0.225638 max: 0.963305
smoothSolver:  Solving for Ux, Initial residual = 4.66782e-06, Final residual = 4.66782e-06, No Iterations 0
smoothSolver:  Solving for Uy, Initial residual = 7.85472e-06, Final residual = 7.85472e-06, No Iterations 0
DICPCG:  Solving for p, Initial residual = 1.68888e-06, Final residual = 8.19978e-07, No Iterations 2
time step continuity errors : sum local = 5.27932e-10, global = 1.36546e-19, cumulative = -3.97805e-19
DICPCG:  Solving for p, Initial residual = 1.56271e-06, Final residual = 9.00173e-07, No Iterations 2
time step continuity errors : sum local = 5.72513e-10, global = -2.10004e-20, cumulative = -4.18805e-19
ExecutionTime = 0.95 s  ClockTime = 2 s

Time = 0.5575

Courant Number mean: 0.225638 max: 0.963305
smoothSolver:  Solving for Ux, Initial residual = 4.6109e-06, Final residual = 4.6109e-06, No Iterations 0
smoothSolver:  Solving for Uy, Initial residual = 7.78018e-06, Final residual = 7.78018e-06, No Iterations 0
DICPCG:  Solving for p, Initial residual = 1.60315e-06, Final residual = 9.64457e-07, No Iterations 1
time step continuity errors : sum local = 6.09136e-10, global = 4.22633e-20, cumulative = -3.76542e-19
DICPCG:  Solving for p, Initial residual = 1.33999e-06, Final residual = 8.3288e-07, No Iterations 1
time step continuity errors : sum local = 5.34287e-10, global = -9.3716e-20, cumulative = -4.70258e-19
ExecutionTime = 0.96 s  ClockTime = 2 s

Time = 0.55875

Courant Number mean: 0.225639 max: 0.963305
smoothSolver:  Solving for Ux, Initial residual = 4.55609e-06, Final residual = 4.55609e-06, No Iterations 0
smoothSolver:  Solving for Uy, Initial residual = 7.7153e-06, Final residual = 7.7153e-06, No Iterations 0
DICPCG:  Solving for p, Initial residual = 1.09055e-06, Final residual = 9.45643e-07, No Iterations 1
time step continuity errors : sum local = 5.98309e-10, global = -1.0903e-19, cumulative = -5.79288e-19
DICPCG:  Solving for p, Initial residual = 1.16384e-06, Final residual = 8.0025e-07, No Iterations 16
time step continuity errors : sum local = 4.92487e-10, global = 1.17398e-19, cumulative = -4.61889e-19
ExecutionTime = 0.99 s  ClockTime = 2 s

Time = 0.56

Courant Number mean: 0.225639 max: 0.963305
smoothSolver:  Solving for Ux, Initial residual = 4.48133e-06, Final residual = 4.48133e-06, No Iterations 0
smoothSolver:  Solving for Uy, Initial residual = 7.80197e-06, Final residual = 7.80197e-06, No Iterations 0
DICPCG:  Solving for p, Initial residual = 1.54588e-06, Final residual = 8.25835e-07, No Iterations 19
time step continuity errors : sum local = 5.04364e-10, global = 1.74243e-19, cumulative = -2.87647e-19
DICPCG:  Solving for p, Initial residual = 1.4203e-06, Final residual = 9.97189e-07, No Iterations 3
time step continuity errors : sum local = 6.00543e-10, global = 9.71949e-20, cumulative = -1.90452e-19
ExecutionTime = 1 s  ClockTime = 2 s

Time = 0.56125

Courant Number mean: 0.225639 max: 0.963305
smoothSolver:  Solving for Ux, Initial residual = 4.44663e-06, Final residual = 4.44663e-06, No Iterations 0
smoothSolver:  Solving for Uy, Initial residual = 7.60376e-06, Final residual = 7.60376e-06, No Iterations 0
DICPCG:  Solving for p, Initial residual = 1.70029e-06, Final residual = 8.91604e-07, No Iterations 7
time step continuity errors : sum local = 5.43055e-10, global = 7.99764e-21, cumulative = -1.82454e-19
DICPCG:  Solving for p, Initial residual = 1.48323e-06, Final residual = 6.67951e-07, No Iterations 4
time step continuity errors : sum local = 4.14706e-10, global = 3.71699e-19, cumulative = 1.89244e-19
ExecutionTime = 1 s  ClockTime = 2 s

Time = 0.5625

Courant Number mean: 0.225639 max: 0.963305
smoothSolver:  Solving for Ux, Initial residual = 4.39331e-06, Final residual = 4.39331e-06, No Iterations 0
smoothSolver:  Solving for Uy, Initial residual = 7.47397e-06, Final residual = 7.47397e-06, No Iterations 0
DICPCG:  Solving for p, Initial residual = 1.31453e-06, Final residual = 9.07503e-07, No Iterations 2
time step continuity errors : sum local = 5.57187e-10, global = -1.1822e-19, cumulative = 7.10243e-20
DICPCG:  Solving for p, Initial residual = 1.64765e-06, Final residual = 9.17591e-07, No Iterations 2
time step continuity errors : sum local = 5.65118e-10, global = -1.91101e-19, cumulative = -1.20076e-19
ExecutionTime = 1 s  ClockTime = 2 s

Time = 0.56375

Courant Number mean: 0.225639 max: 0.963305
smoothSolver:  Solving for Ux, Initial residual = 4.34342e-06, Final residual = 4.34342e-06, No Iterations 0
smoothSolver:  Solving for Uy, Initial residual = 7.4364e-06, Final residual = 7.4364e-06, No Iterations 0
DICPCG:  Solving for p, Initial residual = 1.67817e-06, Final residual = 8.65155e-07, No Iterations 7
time step continuity errors : sum local = 5.32151e-10, global = 5.92298e-20, cumulative = -6.08463e-20
DICPCG:  Solving for p, Initial residual = 1.52927e-06, Final residual = 6.93593e-07, No Iterations 6
time step continuity errors : sum local = 4.34186e-10, global = 1.25514e-19, cumulative = 6.46678e-20
ExecutionTime = 1.01 s  ClockTime = 2 s

Time = 0.565

Courant Number mean: 0.22564 max: 0.963305
smoothSolver:  Solving for Ux, Initial residual = 4.31317e-06, Final residual = 4.31317e-06, No Iterations 0
smoothSolver:  Solving for Uy, Initial residual = 7.34118e-06, Final residual = 7.34118e-06, No Iterations 0
DICPCG:  Solving for p, Initial residual = 1.22477e-06, Final residual = 8.48215e-07, No Iterations 3
time step continuity errors : sum local = 5.19273e-10, global = 1.68847e-19, cumulative = 2.33515e-19
DICPCG:  Solving for p, Initial residual = 1.39626e-06, Final residual = 8.74452e-07, No Iterations 2
time step continuity errors : sum local = 5.36671e-10, global = 3.0052e-19, cumulative = 5.34034e-19
ExecutionTime = 1.01 s  ClockTime = 2 s

Time = 0.56625

Courant Number mean: 0.22564 max: 0.963305
smoothSolver:  Solving for Ux, Initial residual = 4.24546e-06, Final residual = 4.24546e-06, No Iterations 0
smoothSolver:  Solving for Uy, Initial residual = 7.26287e-06, Final residual = 7.26287e-06, No Iterations 0
DICPCG:  Solving for p, Initial residual = 1.65227e-06, Final residual = 8.77199e-07, No Iterations 1
time step continuity errors : sum local = 5.38297e-10, global = 6.85961e-20, cumulative = 6.0263e-19
DICPCG:  Solving for p, Initial residual = 1.24694e-06, Final residual = 7.59445e-07, No Iterations 1
time step continuity errors : sum local = 4.71048e-10, global = -1.30197e-19, cumulative = 4.72434e-19
ExecutionTime = 1.01 s  ClockTime = 2 s

Time = 0.5675

Courant Number mean: 0.22564 max: 0.963305
smoothSolver:  Solving for Ux, Initial residual = 4.19735e-06, Final residual = 4.19735e-06, No Iterations 0
smoothSolver:  Solving for Uy, Initial residual = 7.20714e-06, Final residual = 7.20714e-06, No Iterations 0
DICPCG:  Solving for p, Initial residual = 1.03805e-06, Final residual = 9.37575e-07, No Iterations 1
time step continuity errors : sum local = 5.72366e-10, global = -1.62143e-19, cumulative = 3.10291e-19
DICPCG:  Solving for p, Initial residual = 1.16792e-06, Final residual = 9.87471e-07, No Iterations 1
time step continuity errors : sum local = 6.01252e-10, global = 2.12547e-19, cumulative = 5.22838e-19
ExecutionTime = 1.01 s  ClockTime = 2 s

Time = 0.56875

Courant Number mean: 0.22564 max: 0.963305
smoothSolver:  Solving for Ux, Initial residual = 4.14847e-06, Final residual = 4.14847e-06, No Iterations 0
smoothSolver:  Solving for Uy, Initial residual = 7.14895e-06, Final residual = 7.14895e-06, No Iterations 0
DICPCG:  Solving for p, Initial residual = 1.27207e-06, Final residual = 7.50194e-07, No Iterations 7
time step continuity errors : sum local = 4.7012e-10, global = 1.98099e-19, cumulative = 7.20936e-19
DICPCG:  Solving for p, Initial residual = 1.34495e-06, Final residual = 9.78722e-07, No Iterations 5
time step continuity errors : sum local = 5.96526e-10, global = -1.4645e-19, cumulative = 5.74486e-19
ExecutionTime = 1.01 s  ClockTime = 2 s

Time = 0.57

Courant Number mean: 0.22564 max: 0.963305
smoothSolver:  Solving for Ux, Initial residual = 4.11366e-06, Final residual = 4.11366e-06, No Iterations 0
smoothSolver:  Solving for Uy, Initial residual = 7.02137e-06, Final residual = 7.02137e-06, No Iterations 0
DICPCG:  Solving for p, Initial residual = 1.68586e-06, Final residual = 9.15467e-07, No Iterations 7
time step continuity errors : sum local = 5.5798e-10, global = -8.43534e-20, cumulative = 4.90133e-19
DICPCG:  Solving for p, Initial residual = 1.66686e-06, Final residual = 6.12469e-07, No Iterations 4
time step continuity errors : sum local = 3.8129e-10, global = 1.89149e-19, cumulative = 6.79282e-19
ExecutionTime = 1.01 s  ClockTime = 2 s

Time = 0.57125

Courant Number mean: 0.22564 max: 0.963305
smoothSolver:  Solving for Ux, Initial residual = 4.06491e-06, Final residual = 4.06491e-06, No Iterations 0
smoothSolver:  Solving for Uy, Initial residual = 6.99757e-06, Final residual = 6.99757e-06, No Iterations 0
DICPCG:  Solving for p, Initial residual = 1.23546e-06, Final residual = 5.40036e-07, No Iterations 2
time step continuity errors : sum local = 3.38763e-10, global = 1.27472e-19, cumulative = 8.06754e-19
DICPCG:  Solving for p, Initial residual = 9.97996e-07, Final residual = 9.97996e-07, No Iterations 0
time step continuity errors : sum local = 5.99525e-10, global = 1.24709e-20, cumulative = 8.19225e-19
ExecutionTime = 1.02 s  ClockTime = 2 s

Time = 0.5725

Courant Number mean: 0.225641 max: 0.963305
smoothSolver:  Solving for Ux, Initial residual = 4.00767e-06, Final residual = 4.00767e-06, No Iterations 0
smoothSolver:  Solving for Uy, Initial residual = 6.92181e-06, Final residual = 6.92181e-06, No Iterations 0
DICPCG:  Solving for p, Initial residual = 1.48716e-06, Final residual = 8.08479e-07, No Iterations 2
time step continuity errors : sum local = 4.92939e-10, global = 2.56789e-19, cumulative = 1.07601e-18
DICPCG:  Solving for p, Initial residual = 1.59414e-06, Final residual = 8.09784e-07, No Iterations 1
time step continuity errors : sum local = 4.9179e-10, global = -1.83838e-19, cumulative = 8.92175e-19
ExecutionTime = 1.03 s  ClockTime = 2 s

Time = 0.57375

Courant Number mean: 0.225641 max: 0.963306
smoothSolver:  Solving for Ux, Initial residual = 3.95926e-06, Final residual = 3.95926e-06, No Iterations 0
smoothSolver:  Solving for Uy, Initial residual = 6.88004e-06, Final residual = 6.88004e-06, No Iterations 0
DICPCG:  Solving for p, Initial residual = 1.14344e-06, Final residual = 7.8773e-07, No Iterations 1
time step continuity errors : sum local = 4.79619e-10, global = 1.6057e-20, cumulative = 9.08232e-19
DICPCG:  Solving for p, Initial residual = 1.0742e-06, Final residual = 8.21197e-07, No Iterations 5
time step continuity errors : sum local = 4.98129e-10, global = 3.84033e-20, cumulative = 9.46635e-19
ExecutionTime = 1.03 s  ClockTime = 2 s

Time = 0.575

Courant Number mean: 0.225641 max: 0.963306
smoothSolver:  Solving for Ux, Initial residual = 3.89288e-06, Final residual = 3.89288e-06, No Iterations 0
smoothSolver:  Solving for Uy, Initial residual = 6.79956e-06, Final residual = 6.79956e-06, No Iterations 0
DICPCG:  Solving for p, Initial residual = 1.3813e-06, Final residual = 6.97897e-07, No Iterations 4
time step continuity errors : sum local = 4.27807e-10, global = -1.3808e-19, cumulative = 8.08556e-19
DICPCG:  Solving for p, Initial residual = 1.19691e-06, Final residual = 8.6787e-07, No Iterations 2
time step continuity errors : sum local = 5.24475e-10, global = 5.22177e-20, cumulative = 8.60773e-19
ExecutionTime = 1.04 s  ClockTime = 2 s

Time = 0.57625

Courant Number mean: 0.225641 max: 0.963306
smoothSolver:  Solving for Ux, Initial residual = 3.87692e-06, Final residual = 3.87692e-06, No Iterations 0
smoothSolver:  Solving for Uy, Initial residual = 6.72233e-06, Final residual = 6.72233e-06, No Iterations 0
DICPCG:  Solving for p, Initial residual = 1.67418e-06, Final residual = 9.07818e-07, No Iterations 2
time step continuity errors : sum local = 5.4689e-10, global = -1.94902e-19, cumulative = 6.65871e-19
DICPCG:  Solving for p, Initial residual = 1.70048e-06, Final residual = 8.28078e-07, No Iterations 1
time step continuity errors : sum local = 5.02069e-10, global = -6.38485e-20, cumulative = 6.02023e-19
ExecutionTime = 1.04 s  ClockTime = 2 s

Time = 0.5775

Courant Number mean: 0.225641 max: 0.963306
smoothSolver:  Solving for Ux, Initial residual = 3.82654e-06, Final residual = 3.82654e-06, No Iterations 0
smoothSolver:  Solving for Uy, Initial residual = 6.67066e-06, Final residual = 6.67066e-06, No Iterations 0
DICPCG:  Solving for p, Initial residual = 1.21414e-06, Final residual = 8.24933e-07, No Iterations 1
time step continuity errors : sum local = 5.00357e-10, global = 1.88768e-19, cumulative = 7.90791e-19
DICPCG:  Solving for p, Initial residual = 1.06359e-06, Final residual = 9.56817e-07, No Iterations 1
time step continuity errors : sum local = 5.75555e-10, global = -7.98908e-22, cumulative = 7.89992e-19
ExecutionTime = 1.05 s  ClockTime = 2 s

Time = 0.57875

Courant Number mean: 0.225641 max: 0.963306
smoothSolver:  Solving for Ux, Initial residual = 3.78136e-06, Final residual = 3.78136e-06, No Iterations 0
smoothSolver:  Solving for Uy, Initial residual = 6.61653e-06, Final residual = 6.61653e-06, No Iterations 0
DICPCG:  Solving for p, Initial residual = 1.18133e-06, Final residual = 9.87869e-07, No Iterations 1
time step continuity errors : sum local = 5.93305e-10, global = 7.47881e-20, cumulative = 8.6478e-19
DICPCG:  Solving for p, Initial residual = 1.23755e-06, Final residual = 6.96504e-07, No Iterations 10
time step continuity errors : sum local = 4.29212e-10, global = 3.26492e-20, cumulative = 8.97429e-19
ExecutionTime = 1.06 s  ClockTime = 2 s

Time = 0.58

Courant Number mean: 0.225642 max: 0.963306
smoothSolver:  Solving for Ux, Initial residual = 3.75492e-06, Final residual = 3.75492e-06, No Iterations 0
smoothSolver:  Solving for Uy, Initial residual = 6.42778e-06, Final residual = 6.42778e-06, No Iterations 0
DICPCG:  Solving for p, Initial residual = 1.40641e-06, Final residual = 9.5183e-07, No Iterations 7
time step continuity errors : sum local = 5.70028e-10, global = 2.96006e-19, cumulative = 1.19344e-18
DICPCG:  Solving for p, Initial residual = 1.52192e-06, Final residual = 9.60907e-07, No Iterations 4
time step continuity errors : sum local = 5.74814e-10, global = 7.91016e-20, cumulative = 1.27254e-18
ExecutionTime = 1.07 s  ClockTime = 2 s

Time = 0.58125

Courant Number mean: 0.225642 max: 0.963306
smoothSolver:  Solving for Ux, Initial residual = 3.70683e-06, Final residual = 3.70683e-06, No Iterations 0
smoothSolver:  Solving for Uy, Initial residual = 6.44888e-06, Final residual = 6.44888e-06, No Iterations 0
DICPCG:  Solving for p, Initial residual = 1.77738e-06, Final residual = 9.14795e-07, No Iterations 2
time step continuity errors : sum local = 5.48161e-10, global = 2.65875e-19, cumulative = 1.53841e-18
DICPCG:  Solving for p, Initial residual = 1.74871e-06, Final residual = 9.08402e-07, No Iterations 10
time step continuity errors : sum local = 5.47498e-10, global = 1.49048e-19, cumulative = 1.68746e-18
ExecutionTime = 1.08 s  ClockTime = 2 s

Time = 0.5825

Courant Number mean: 0.225642 max: 0.963306
smoothSolver:  Solving for Ux, Initial residual = 3.64712e-06, Final residual = 3.64712e-06, No Iterations 0
smoothSolver:  Solving for Uy, Initial residual = 6.46712e-06, Final residual = 6.46712e-06, No Iterations 0
DICPCG:  Solving for p, Initial residual = 1.58975e-06, Final residual = 8.07036e-07, No Iterations 5
time step continuity errors : sum local = 4.93576e-10, global = -1.00189e-19, cumulative = 1.58727e-18
DICPCG:  Solving for p, Initial residual = 1.47377e-06, Final residual = 9.50383e-07, No Iterations 10
time step continuity errors : sum local = 5.64474e-10, global = 1.05159e-21, cumulative = 1.58832e-18
ExecutionTime = 1.08 s  ClockTime = 2 s

Time = 0.58375

Courant Number mean: 0.225642 max: 0.963306
smoothSolver:  Solving for Ux, Initial residual = 3.63256e-06, Final residual = 3.63256e-06, No Iterations 0
smoothSolver:  Solving for Uy, Initial residual = 6.36002e-06, Final residual = 6.36002e-06, No Iterations 0
DICPCG:  Solving for p, Initial residual = 1.53537e-06, Final residual = 9.64477e-07, No Iterations 4
time step continuity errors : sum local = 5.70231e-10, global = -1.37729e-19, cumulative = 1.45059e-18
DICPCG:  Solving for p, Initial residual = 1.65051e-06, Final residual = 8.75904e-07, No Iterations 2
time step continuity errors : sum local = 5.18623e-10, global = 1.16002e-19, cumulative = 1.5666e-18
ExecutionTime = 1.08 s  ClockTime = 2 s

Time = 0.585

Courant Number mean: 0.225642 max: 0.963306
smoothSolver:  Solving for Ux, Initial residual = 3.57646e-06, Final residual = 3.57646e-06, No Iterations 0
smoothSolver:  Solving for Uy, Initial residual = 6.27911e-06, Final residual = 6.27911e-06, No Iterations 0
DICPCG:  Solving for p, Initial residual = 1.72152e-06, Final residual = 8.80564e-07, No Iterations 1
time step continuity errors : sum local = 5.22712e-10, global = 1.24358e-19, cumulative = 1.69095e-18
DICPCG:  Solving for p, Initial residual = 1.37162e-06, Final residual = 7.58809e-07, No Iterations 5
time step continuity errors : sum local = 4.50342e-10, global = 1.00202e-19, cumulative = 1.79116e-18
ExecutionTime = 1.08 s  ClockTime = 2 s

Time = 0.58625

Courant Number mean: 0.225642 max: 0.963306
smoothSolver:  Solving for Ux, Initial residual = 3.53814e-06, Final residual = 3.53814e-06, No Iterations 0
smoothSolver:  Solving for Uy, Initial residual = 6.1735e-06, Final residual = 6.1735e-06, No Iterations 0
DICPCG:  Solving for p, Initial residual = 1.42343e-06, Final residual = 6.13053e-07, No Iterations 3
time step continuity errors : sum local = 3.65375e-10, global = 9.3897e-20, cumulative = 1.88505e-18
DICPCG:  Solving for p, Initial residual = 1.18908e-06, Final residual = 6.97801e-07, No Iterations 2
time step continuity errors : sum local = 4.17001e-10, global = -4.29979e-20, cumulative = 1.84205e-18
ExecutionTime = 1.08 s  ClockTime = 2 s

Time = 0.5875

Courant Number mean: 0.225642 max: 0.963306
smoothSolver:  Solving for Ux, Initial residual = 3.49742e-06, Final residual = 3.49742e-06, No Iterations 0
smoothSolver:  Solving for Uy, Initial residual = 6.15768e-06, Final residual = 6.15768e-06, No Iterations 0
DICPCG:  Solving for p, Initial residual = 1.33225e-06, Final residual = 9.8171e-07, No Iterations 1
time step continuity errors : sum local = 5.77202e-10, global = 1.37703e-19, cumulative = 1.97976e-18
DICPCG:  Solving for p, Initial residual = 1.41991e-06, Final residual = 7.78703e-07, No Iterations 1
time step continuity errors : sum local = 4.62278e-10, global = -1.59491e-21, cumulative = 1.97816e-18
ExecutionTime = 1.09 s  ClockTime = 2 s

Time = 0.58875

Courant Number mean: 0.225643 max: 0.963306
smoothSolver:  Solving for Ux, Initial residual = 3.4536e-06, Final residual = 3.4536e-06, No Iterations 0
smoothSolver:  Solving for Uy, Initial residual = 6.10451e-06, Final residual = 6.10451e-06, No Iterations 0
DICPCG:  Solving for p, Initial residual = 1.06879e-06, Final residual = 9.15304e-07, No Iterations 1
time step continuity errors : sum local = 5.40453e-10, global = 7.43946e-20, cumulative = 2.05256e-18
DICPCG:  Solving for p, Initial residual = 1.15186e-06, Final residual = 9.1901e-07, No Iterations 1
time step continuity errors : sum local = 5.4314e-10, global = 6.8359e-20, cumulative = 2.12092e-18
ExecutionTime = 1.09 s  ClockTime = 2 s

Time = 0.59

Courant Number mean: 0.225643 max: 0.963306
smoothSolver:  Solving for Ux, Initial residual = 3.41186e-06, Final residual = 3.41186e-06, No Iterations 0
smoothSolver:  Solving for Uy, Initial residual = 6.0584e-06, Final residual = 6.0584e-06, No Iterations 0
DICPCG:  Solving for p, Initial residual = 1.22574e-06, Final residual = 9.54809e-07, No Iterations 8
time step continuity errors : sum local = 5.72303e-10, global = 1.52872e-19, cumulative = 2.27379e-18
DICPCG:  Solving for p, Initial residual = 1.69716e-06, Final residual = 9.13355e-07, No Iterations 5
time step continuity errors : sum local = 5.46305e-10, global = -7.38994e-20, cumulative = 2.19989e-18
ExecutionTime = 1.09 s  ClockTime = 2 s

Time = 0.59125

Courant Number mean: 0.225643 max: 0.963306
smoothSolver:  Solving for Ux, Initial residual = 3.38468e-06, Final residual = 3.38468e-06, No Iterations 0
smoothSolver:  Solving for Uy, Initial residual = 5.9444e-06, Final residual = 5.9444e-06, No Iterations 0
DICPCG:  Solving for p, Initial residual = 1.66159e-06, Final residual = 9.1517e-07, No Iterations 3
time step continuity errors : sum local = 5.43807e-10, global = 1.01518e-19, cumulative = 2.30141e-18
DICPCG:  Solving for p, Initial residual = 1.71727e-06, Final residual = 7.87545e-07, No Iterations 3
time step continuity errors : sum local = 4.72588e-10, global = 1.41592e-19, cumulative = 2.443e-18
ExecutionTime = 1.09 s  ClockTime = 2 s

Time = 0.5925

Courant Number mean: 0.225643 max: 0.963306
smoothSolver:  Solving for Ux, Initial residual = 3.33938e-06, Final residual = 3.33938e-06, No Iterations 0
smoothSolver:  Solving for Uy, Initial residual = 5.90352e-06, Final residual = 5.90352e-06, No Iterations 0
DICPCG:  Solving for p, Initial residual = 1.37657e-06, Final residual = 7.19315e-07, No Iterations 2
time step continuity errors : sum local = 4.33114e-10, global = 1.83609e-19, cumulative = 2.62661e-18
DICPCG:  Solving for p, Initial residual = 1.28254e-06, Final residual = 8.46287e-07, No Iterations 1
time step continuity errors : sum local = 5.05788e-10, global = -4.42004e-19, cumulative = 2.1846e-18
ExecutionTime = 1.09 s  ClockTime = 2 s

Time = 0.59375

Courant Number mean: 0.225643 max: 0.963306
smoothSolver:  Solving for Ux, Initial residual = 3.30021e-06, Final residual = 3.30021e-06, No Iterations 0
smoothSolver:  Solving for Uy, Initial residual = 5.85264e-06, Final residual = 5.85264e-06, No Iterations 0
DICPCG:  Solving for p, Initial residual = 1.14794e-06, Final residual = 7.62093e-07, No Iterations 1
time step continuity errors : sum local = 4.57528e-10, global = -8.46611e-20, cumulative = 2.09994e-18
DICPCG:  Solving for p, Initial residual = 1.00241e-06, Final residual = 8.97202e-07, No Iterations 1
time step continuity errors : sum local = 5.3446e-10, global = -4.47192e-19, cumulative = 1.65275e-18
ExecutionTime = 1.1 s  ClockTime = 2 s

Time = 0.595

Courant Number mean: 0.225643 max: 0.963306
smoothSolver:  Solving for Ux, Initial residual = 3.2643e-06, Final residual = 3.2643e-06, No Iterations 0
smoothSolver:  Solving for Uy, Initial residual = 5.81052e-06, Final residual = 5.81052e-06, No Iterations 0
DICPCG:  Solving for p, Initial residual = 1.14463e-06, Final residual = 9.7096e-07, No Iterations 1
time step continuity errors : sum local = 5.76441e-10, global = 8.9895e-20, cumulative = 1.74264e-18
DICPCG:  Solving for p, Initial residual = 1.2826e-06, Final residual = 8.95547e-07, No Iterations 7
time step continuity errors : sum local = 5.3019e-10, global = -3.81641e-19, cumulative = 1.361e-18
ExecutionTime = 1.11 s  ClockTime = 2 s

Time = 0.59625

Courant Number mean: 0.225643 max: 0.963307
smoothSolver:  Solving for Ux, Initial residual = 3.22856e-06, Final residual = 3.22856e-06, No Iterations 0
smoothSolver:  Solving for Uy, Initial residual = 5.83701e-06, Final residual = 5.83701e-06, No Iterations 0
DICPCG:  Solving for p, Initial residual = 1.58423e-06, Final residual = 8.99312e-07, No Iterations 6
time step continuity errors : sum local = 5.27003e-10, global = -2.39845e-19, cumulative = 1.12116e-18
DICPCG:  Solving for p, Initial residual = 1.56154e-06, Final residual = 8.80906e-07, No Iterations 3
time step continuity errors : sum local = 5.13489e-10, global = -3.35719e-22, cumulative = 1.12082e-18
ExecutionTime = 1.11 s  ClockTime = 2 s

Time = 0.5975

Courant Number mean: 0.225644 max: 0.963307
smoothSolver:  Solving for Ux, Initial residual = 3.1944e-06, Final residual = 3.1944e-06, No Iterations 0
smoothSolver:  Solving for Uy, Initial residual = 5.70849e-06, Final residual = 5.70849e-06, No Iterations 0
DICPCG:  Solving for p, Initial residual = 1.5448e-06, Final residual = 9.19743e-07, No Iterations 2
time step continuity errors : sum local = 5.3607e-10, global = -1.37669e-19, cumulative = 9.83155e-19
DICPCG:  Solving for p, Initial residual = 1.61357e-06, Final residual = 9.23653e-07, No Iterations 2
time step continuity errors : sum local = 5.38803e-10, global = 1.21191e-19, cumulative = 1.10435e-18
ExecutionTime = 1.11 s  ClockTime = 2 s

Time = 0.59875

Courant Number mean: 0.225644 max: 0.963307
smoothSolver:  Solving for Ux, Initial residual = 3.15339e-06, Final residual = 3.15339e-06, No Iterations 0
smoothSolver:  Solving for Uy, Initial residual = 5.66086e-06, Final residual = 5.66086e-06, No Iterations 0
DICPCG:  Solving for p, Initial residual = 1.5713e-06, Final residual = 9.99481e-07, No Iterations 2
time step continuity errors : sum local = 5.81086e-10, global = -1.43928e-19, cumulative = 9.60417e-19
DICPCG:  Solving for p, Initial residual = 1.68008e-06, Final residual = 8.29568e-07, No Iterations 6
time step continuity errors : sum local = 4.85114e-10, global = -3.26289e-20, cumulative = 9.27789e-19
ExecutionTime = 1.12 s  ClockTime = 2 s

Time = 0.6

Courant Number mean: 0.225644 max: 0.963307
smoothSolver:  Solving for Ux, Initial residual = 3.11363e-06, Final residual = 3.11363e-06, No Iterations 0
smoothSolver:  Solving for Uy, Initial residual = 5.64475e-06, Final residual = 5.64475e-06, No Iterations 0
DICPCG:  Solving for p, Initial residual = 1.60416e-06, Final residual = 7.77295e-07, No Iterations 7
time step continuity errors : sum local = 4.54583e-10, global = -4.97546e-20, cumulative = 8.78034e-19
DICPCG:  Solving for p, Initial residual = 1.29301e-06, Final residual = 7.3769e-07, No Iterations 4
time step continuity errors : sum local = 4.32896e-10, global = -7.62819e-20, cumulative = 8.01752e-19
ExecutionTime = 1.12 s  ClockTime = 2 s

Time = 0.60125

Courant Number mean: 0.225644 max: 0.963307
smoothSolver:  Solving for Ux, Initial residual = 3.08647e-06, Final residual = 3.08647e-06, No Iterations 0
smoothSolver:  Solving for Uy, Initial residual = 5.49965e-06, Final residual = 5.49965e-06, No Iterations 0
DICPCG:  Solving for p, Initial residual = 1.38388e-06, Final residual = 7.63332e-07, No Iterations 2
time step continuity errors : sum local = 4.47016e-10, global = 3.48541e-19, cumulative = 1.15029e-18
DICPCG:  Solving for p, Initial residual = 1.36033e-06, Final residual = 8.23788e-07, No Iterations 1
time step continuity errors : sum local = 4.81369e-10, global = -2.0681e-19, cumulative = 9.43483e-19
ExecutionTime = 1.12 s  ClockTime = 2 s

Time = 0.6025

Courant Number mean: 0.225644 max: 0.963307
smoothSolver:  Solving for Ux, Initial residual = 3.06313e-06, Final residual = 3.06313e-06, No Iterations 0
smoothSolver:  Solving for Uy, Initial residual = 5.46959e-06, Final residual = 5.46959e-06, No Iterations 0
DICPCG:  Solving for p, Initial residual = 1.28922e-06, Final residual = 9.57301e-07, No Iterations 1
time step continuity errors : sum local = 5.57896e-10, global = 1.65593e-19, cumulative = 1.10908e-18
DICPCG:  Solving for p, Initial residual = 1.29843e-06, Final residual = 9.76671e-07, No Iterations 2
time step continuity errors : sum local = 5.71002e-10, global = 1.68425e-20, cumulative = 1.12592e-18
ExecutionTime = 1.12 s  ClockTime = 2 s

Time = 0.60375

Courant Number mean: 0.225644 max: 0.963307
smoothSolver:  Solving for Ux, Initial residual = 3.01681e-06, Final residual = 3.01681e-06, No Iterations 0
smoothSolver:  Solving for Uy, Initial residual = 5.41062e-06, Final residual = 5.41062e-06, No Iterations 0
DICPCG:  Solving for p, Initial residual = 1.72013e-06, Final residual = 8.71607e-07, No Iterations 2
time step continuity errors : sum local = 5.1099e-10, global = -7.56909e-20, cumulative = 1.05023e-18
DICPCG:  Solving for p, Initial residual = 1.54561e-06, Final residual = 6.49618e-07, No Iterations 1
time step continuity errors : sum local = 3.84573e-10, global = 2.39313e-19, cumulative = 1.28954e-18
ExecutionTime = 1.13 s  ClockTime = 2 s

Time = 0.605

Courant Number mean: 0.225644 max: 0.963307
smoothSolver:  Solving for Ux, Initial residual = 2.99e-06, Final residual = 2.99e-06, No Iterations 0
smoothSolver:  Solving for Uy, Initial residual = 5.38337e-06, Final residual = 5.38337e-06, No Iterations 0
DICPCG:  Solving for p, Initial residual = 9.25118e-07, Final residual = 9.25118e-07, No Iterations 0
time step continuity errors : sum local = 5.4147e-10, global = 9.93848e-20, cumulative = 1.38893e-18
DICPCG:  Solving for p, Initial residual = 1.1693e-06, Final residual = 7.58023e-07, No Iterations 1
time step continuity errors : sum local = 4.46608e-10, global = 3.503e-19, cumulative = 1.73923e-18
ExecutionTime = 1.13 s  ClockTime = 2 s

Time = 0.60625

Courant Number mean: 0.225645 max: 0.963307
smoothSolver:  Solving for Ux, Initial residual = 2.95505e-06, Final residual = 2.95505e-06, No Iterations 0
smoothSolver:  Solving for Uy, Initial residual = 5.34079e-06, Final residual = 5.34079e-06, No Iterations 0
DICPCG:  Solving for p, Initial residual = 1.05558e-06, Final residual = 6.39528e-07, No Iterations 1
time step continuity errors : sum local = 3.79298e-10, global = -2.85632e-19, cumulative = 1.45359e-18
DICPCG:  Solving for p, Initial residual = 8.15038e-07, Final residual = 8.15038e-07, No Iterations 0
time step continuity errors : sum local = 4.79256e-10, global = 3.44378e-19, cumulative = 1.79797e-18
ExecutionTime = 1.14 s  ClockTime = 2 s

Time = 0.6075

Courant Number mean: 0.225645 max: 0.963307
smoothSolver:  Solving for Ux, Initial residual = 2.92142e-06, Final residual = 2.92142e-06, No Iterations 0
smoothSolver:  Solving for Uy, Initial residual = 5.2999e-06, Final residual = 5.2999e-06, No Iterations 0
DICPCG:  Solving for p, Initial residual = 1.02397e-06, Final residual = 9.15363e-07, No Iterations 1
time step continuity errors : sum local = 5.36625e-10, global = 1.78726e-19, cumulative = 1.9767e-18
DICPCG:  Solving for p, Initial residual = 1.24905e-06, Final residual = 8.62696e-07, No Iterations 1
time step continuity errors : sum local = 5.06825e-10, global = 8.73858e-20, cumulative = 2.06408e-18
ExecutionTime = 1.14 s  ClockTime = 2 s

Time = 0.60875

Courant Number mean: 0.225645 max: 0.963307
smoothSolver:  Solving for Ux, Initial residual = 2.88664e-06, Final residual = 2.88664e-06, No Iterations 0
smoothSolver:  Solving for Uy, Initial residual = 5.25954e-06, Final residual = 5.25954e-06, No Iterations 0
DICPCG:  Solving for p, Initial residual = 1.14165e-06, Final residual = 6.92811e-07, No Iterations 3
time step continuity errors : sum local = 4.10832e-10, global = -7.37086e-20, cumulative = 1.99037e-18
DICPCG:  Solving for p, Initial residual = 1.33471e-06, Final residual = 9.06475e-07, No Iterations 2
time step continuity errors : sum local = 5.31703e-10, global = -9.65808e-20, cumulative = 1.89379e-18
ExecutionTime = 1.16 s  ClockTime = 3 s

Time = 0.61

Courant Number mean: 0.225645 max: 0.963307
smoothSolver:  Solving for Ux, Initial residual = 2.8487e-06, Final residual = 2.8487e-06, No Iterations 0
smoothSolver:  Solving for Uy, Initial residual = 5.21871e-06, Final residual = 5.21871e-06, No Iterations 0
DICPCG:  Solving for p, Initial residual = 1.81686e-06, Final residual = 9.80937e-07, No Iterations 2
time step continuity errors : sum local = 5.7442e-10, global = 1.41889e-19, cumulative = 2.03568e-18
DICPCG:  Solving for p, Initial residual = 1.86635e-06, Final residual = 9.01657e-07, No Iterations 1
time step continuity errors : sum local = 5.29181e-10, global = -2.42886e-19, cumulative = 1.7928e-18
ExecutionTime = 1.16 s  ClockTime = 3 s

Time = 0.61125

Courant Number mean: 0.225645 max: 0.963307
[...]
time step continuity errors : sum local = 5.62198e-10, global = 2.08465e-19, cumulative = 7.29025e-18
DICPCG:  Solving for p, Initial residual = 1.05687e-06, Final residual = 5.91588e-07, No Iterations 1
time step continuity errors : sum local = 3.40883e-10, global = -2.0548e-20, cumulative = 7.2697e-18
ExecutionTime = 2 s  ClockTime = 5 s

Time = 0.8675

Courant Number mean: 0.225657 max: 0.963311
smoothSolver:  Solving for Ux, Initial residual = 4.72619e-07, Final residual = 4.72619e-07, No Iterations 0
smoothSolver:  Solving for Uy, Initial residual = 1.04459e-06, Final residual = 1.04459e-06, No Iterations 0
DICPCG:  Solving for p, Initial residual = 8.55096e-07, Final residual = 8.55096e-07, No Iterations 0
time step continuity errors : sum local = 4.90928e-10, global = -7.12833e-20, cumulative = 7.19842e-18
DICPCG:  Solving for p, Initial residual = 1.01276e-06, Final residual = 5.70767e-07, No Iterations 1
time step continuity errors : sum local = 3.29051e-10, global = 9.49384e-20, cumulative = 7.29336e-18
ExecutionTime = 2 s  ClockTime = 5 s

Time = 0.86875

Courant Number mean: 0.225657 max: 0.963311
smoothSolver:  Solving for Ux, Initial residual = 4.6888e-07, Final residual = 4.6888e-07, No Iterations 0
smoothSolver:  Solving for Uy, Initial residual = 1.03686e-06, Final residual = 1.03686e-06, No Iterations 0
DICPCG:  Solving for p, Initial residual = 7.75707e-07, Final residual = 7.75707e-07, No Iterations 0
time step continuity errors : sum local = 4.45745e-10, global = 8.88056e-20, cumulative = 7.38216e-18
DICPCG:  Solving for p, Initial residual = 8.95868e-07, Final residual = 8.95868e-07, No Iterations 0
time step continuity errors : sum local = 5.14165e-10, global = -1.10073e-19, cumulative = 7.27209e-18
ExecutionTime = 2 s  ClockTime = 5 s

Time = 0.87

Courant Number mean: 0.225657 max: 0.963311
smoothSolver:  Solving for Ux, Initial residual = 4.64945e-07, Final residual = 4.64945e-07, No Iterations 0
smoothSolver:  Solving for Uy, Initial residual = 1.02916e-06, Final residual = 1.02916e-06, No Iterations 0
DICPCG:  Solving for p, Initial residual = 9.76915e-07, Final residual = 9.76915e-07, No Iterations 0
time step continuity errors : sum local = 5.60313e-10, global = 1.77779e-19, cumulative = 7.44987e-18
DICPCG:  Solving for p, Initial residual = 1.02484e-06, Final residual = 5.35748e-07, No Iterations 1
time step continuity errors : sum local = 3.09128e-10, global = -1.44702e-20, cumulative = 7.4354e-18
ExecutionTime = 2.01 s  ClockTime = 5 s

Time = 0.87125

Courant Number mean: 0.225658 max: 0.963311
smoothSolver:  Solving for Ux, Initial residual = 4.63542e-07, Final residual = 4.63542e-07, No Iterations 0
smoothSolver:  Solving for Uy, Initial residual = 1.02738e-06, Final residual = 1.02738e-06, No Iterations 0
DICPCG:  Solving for p, Initial residual = 8.29305e-07, Final residual = 8.29305e-07, No Iterations 0
time step continuity errors : sum local = 4.76276e-10, global = -1.14551e-19, cumulative = 7.32085e-18
DICPCG:  Solving for p, Initial residual = 1.01098e-06, Final residual = 5.23291e-07, No Iterations 1
time step continuity errors : sum local = 3.02036e-10, global = -1.73683e-19, cumulative = 7.14717e-18
ExecutionTime = 2.01 s  ClockTime = 5 s

Time = 0.8725

Courant Number mean: 0.225658 max: 0.963311
smoothSolver:  Solving for Ux, Initial residual = 4.59919e-07, Final residual = 4.59919e-07, No Iterations 0
smoothSolver:  Solving for Uy, Initial residual = 1.01914e-06, Final residual = 1.01914e-06, No Iterations 0
DICPCG:  Solving for p, Initial residual = 7.35072e-07, Final residual = 7.35072e-07, No Iterations 0
time step continuity errors : sum local = 4.22624e-10, global = 9.82781e-20, cumulative = 7.24544e-18
DICPCG:  Solving for p, Initial residual = 8.6535e-07, Final residual = 8.6535e-07, No Iterations 0
time step continuity errors : sum local = 4.96805e-10, global = -1.052e-19, cumulative = 7.14024e-18
ExecutionTime = 2.01 s  ClockTime = 5 s

Time = 0.87375

Courant Number mean: 0.225658 max: 0.963311
smoothSolver:  Solving for Ux, Initial residual = 4.56157e-07, Final residual = 4.56157e-07, No Iterations 0
smoothSolver:  Solving for Uy, Initial residual = 1.0118e-06, Final residual = 1.0118e-06, No Iterations 0
DICPCG:  Solving for p, Initial residual = 9.56341e-07, Final residual = 9.56341e-07, No Iterations 0
time step continuity errors : sum local = 5.48615e-10, global = -2.72346e-20, cumulative = 7.11301e-18
DICPCG:  Solving for p, Initial residual = 1.01229e-06, Final residual = 5.19625e-07, No Iterations 1
time step continuity errors : sum local = 2.99946e-10, global = 3.4455e-19, cumulative = 7.45756e-18
ExecutionTime = 2.02 s  ClockTime = 6 s

Time = 0.875

Courant Number mean: 0.225658 max: 0.963311
smoothSolver:  Solving for Ux, Initial residual = 4.54848e-07, Final residual = 4.54848e-07, No Iterations 0
smoothSolver:  Solving for Uy, Initial residual = 1.0096e-06, Final residual = 1.0096e-06, No Iterations 0
DICPCG:  Solving for p, Initial residual = 8.35373e-07, Final residual = 8.35373e-07, No Iterations 0
time step continuity errors : sum local = 4.79727e-10, global = 1.94181e-20, cumulative = 7.47698e-18
DICPCG:  Solving for p, Initial residual = 1.03367e-06, Final residual = 5.1687e-07, No Iterations 1
time step continuity errors : sum local = 2.98367e-10, global = -9.84907e-20, cumulative = 7.37849e-18
ExecutionTime = 2.05 s  ClockTime = 6 s

Time = 0.87625

Courant Number mean: 0.225658 max: 0.963311
smoothSolver:  Solving for Ux, Initial residual = 4.51522e-07, Final residual = 4.51522e-07, No Iterations 0
smoothSolver:  Solving for Uy, Initial residual = 1.00145e-06, Final residual = 1.00145e-06, No Iterations 0
DICPCG:  Solving for p, Initial residual = 7.57153e-07, Final residual = 7.57153e-07, No Iterations 0
time step continuity errors : sum local = 4.35184e-10, global = 7.1439e-20, cumulative = 7.44993e-18
DICPCG:  Solving for p, Initial residual = 9.07938e-07, Final residual = 9.07938e-07, No Iterations 0
time step continuity errors : sum local = 5.21042e-10, global = 5.71579e-20, cumulative = 7.50708e-18
ExecutionTime = 2.05 s  ClockTime = 6 s

Time = 0.8775

Courant Number mean: 0.225658 max: 0.963311
smoothSolver:  Solving for Ux, Initial residual = 4.4784e-07, Final residual = 4.4784e-07, No Iterations 0
smoothSolver:  Solving for Uy, Initial residual = 9.94222e-07, Final residual = 9.94222e-07, No Iterations 0
DICPCG:  Solving for p, Initial residual = 1.014e-06, Final residual = 5.35114e-07, No Iterations 1
time step continuity errors : sum local = 3.08748e-10, global = 3.80826e-20, cumulative = 7.54517e-18
DICPCG:  Solving for p, Initial residual = 8.25712e-07, Final residual = 8.25712e-07, No Iterations 0
time step continuity errors : sum local = 4.74209e-10, global = -4.69457e-21, cumulative = 7.54047e-18
ExecutionTime = 2.05 s  ClockTime = 6 s

Time = 0.87875

Courant Number mean: 0.225658 max: 0.963311
smoothSolver:  Solving for Ux, Initial residual = 4.45663e-07, Final residual = 4.45663e-07, No Iterations 0
smoothSolver:  Solving for Uy, Initial residual = 9.88952e-07, Final residual = 9.88952e-07, No Iterations 0
DICPCG:  Solving for p, Initial residual = 1.04419e-06, Final residual = 5.38653e-07, No Iterations 1
time step continuity errors : sum local = 3.10752e-10, global = -1.82217e-19, cumulative = 7.35826e-18
DICPCG:  Solving for p, Initial residual = 7.8412e-07, Final residual = 7.8412e-07, No Iterations 0
time step continuity errors : sum local = 4.50521e-10, global = -4.12569e-20, cumulative = 7.317e-18
ExecutionTime = 2.06 s  ClockTime = 6 s

Time = 0.88

Courant Number mean: 0.225658 max: 0.963311
smoothSolver:  Solving for Ux, Initial residual = 4.42908e-07, Final residual = 4.42908e-07, No Iterations 0
smoothSolver:  Solving for Uy, Initial residual = 9.81881e-07, Final residual = 9.81881e-07, No Iterations 0
DICPCG:  Solving for p, Initial residual = 9.70201e-07, Final residual = 9.70201e-07, No Iterations 0
time step continuity errors : sum local = 5.56476e-10, global = -1.34886e-19, cumulative = 7.18211e-18
DICPCG:  Solving for p, Initial residual = 1.0811e-06, Final residual = 5.56135e-07, No Iterations 1
time step continuity errors : sum local = 3.20702e-10, global = 9.24371e-20, cumulative = 7.27455e-18
ExecutionTime = 2.06 s  ClockTime = 6 s

Time = 0.88125

Courant Number mean: 0.225658 max: 0.963311
smoothSolver:  Solving for Ux, Initial residual = 4.41359e-07, Final residual = 4.41359e-07, No Iterations 0
smoothSolver:  Solving for Uy, Initial residual = 9.7821e-07, Final residual = 9.7821e-07, No Iterations 0
DICPCG:  Solving for p, Initial residual = 8.98024e-07, Final residual = 8.98024e-07, No Iterations 0
time step continuity errors : sum local = 5.15369e-10, global = -1.81932e-19, cumulative = 7.09262e-18
DICPCG:  Solving for p, Initial residual = 1.11155e-06, Final residual = 5.63909e-07, No Iterations 1
time step continuity errors : sum local = 3.25122e-10, global = -2.48237e-19, cumulative = 6.84438e-18
ExecutionTime = 2.07 s  ClockTime = 6 s

Time = 0.8825

Courant Number mean: 0.225658 max: 0.963311
smoothSolver:  Solving for Ux, Initial residual = 4.38522e-07, Final residual = 4.38522e-07, No Iterations 0
smoothSolver:  Solving for Uy, Initial residual = 9.70681e-07, Final residual = 9.70681e-07, No Iterations 0
DICPCG:  Solving for p, Initial residual = 8.53814e-07, Final residual = 8.53814e-07, No Iterations 0
time step continuity errors : sum local = 4.90195e-10, global = 9.8249e-20, cumulative = 6.94263e-18
DICPCG:  Solving for p, Initial residual = 1.03644e-06, Final residual = 5.93954e-07, No Iterations 1
time step continuity errors : sum local = 3.42232e-10, global = 1.02309e-19, cumulative = 7.04494e-18
ExecutionTime = 2.07 s  ClockTime = 6 s

Time = 0.88375

Courant Number mean: 0.225658 max: 0.963311
smoothSolver:  Solving for Ux, Initial residual = 4.36009e-07, Final residual = 4.36009e-07, No Iterations 0
smoothSolver:  Solving for Uy, Initial residual = 9.63771e-07, Final residual = 9.63771e-07, No Iterations 0
DICPCG:  Solving for p, Initial residual = 8.83216e-07, Final residual = 8.83216e-07, No Iterations 0
time step continuity errors : sum local = 5.06936e-10, global = -1.30513e-19, cumulative = 6.91443e-18
DICPCG:  Solving for p, Initial residual = 1.06086e-06, Final residual = 5.94631e-07, No Iterations 1
time step continuity errors : sum local = 3.4262e-10, global = 7.32103e-20, cumulative = 6.98764e-18
ExecutionTime = 2.07 s  ClockTime = 6 s

Time = 0.885

Courant Number mean: 0.225658 max: 0.963311
smoothSolver:  Solving for Ux, Initial residual = 4.33627e-07, Final residual = 4.33627e-07, No Iterations 0
smoothSolver:  Solving for Uy, Initial residual = 9.5754e-07, Final residual = 9.5754e-07, No Iterations 0
DICPCG:  Solving for p, Initial residual = 8.92896e-07, Final residual = 8.92896e-07, No Iterations 0
time step continuity errors : sum local = 5.12453e-10, global = -1.49237e-19, cumulative = 6.8384e-18
DICPCG:  Solving for p, Initial residual = 1.07913e-06, Final residual = 5.97444e-07, No Iterations 1
time step continuity errors : sum local = 3.44233e-10, global = -1.45073e-19, cumulative = 6.69333e-18
ExecutionTime = 2.08 s  ClockTime = 6 s

Time = 0.88625

Courant Number mean: 0.225658 max: 0.963311
smoothSolver:  Solving for Ux, Initial residual = 4.31205e-07, Final residual = 4.31205e-07, No Iterations 0
smoothSolver:  Solving for Uy, Initial residual = 9.51075e-07, Final residual = 9.51075e-07, No Iterations 0
DICPCG:  Solving for p, Initial residual = 8.97182e-07, Final residual = 8.97182e-07, No Iterations 0
time step continuity errors : sum local = 5.14905e-10, global = -1.44927e-19, cumulative = 6.5484e-18
DICPCG:  Solving for p, Initial residual = 1.08283e-06, Final residual = 5.99567e-07, No Iterations 1
time step continuity errors : sum local = 3.45455e-10, global = -1.42196e-19, cumulative = 6.40621e-18
ExecutionTime = 2.08 s  ClockTime = 6 s

Time = 0.8875

Courant Number mean: 0.225658 max: 0.963311
smoothSolver:  Solving for Ux, Initial residual = 4.28788e-07, Final residual = 4.28788e-07, No Iterations 0
smoothSolver:  Solving for Uy, Initial residual = 9.44877e-07, Final residual = 9.44877e-07, No Iterations 0
DICPCG:  Solving for p, Initial residual = 8.99997e-07, Final residual = 8.99997e-07, No Iterations 0
time step continuity errors : sum local = 5.16521e-10, global = 2.36721e-19, cumulative = 6.64293e-18
DICPCG:  Solving for p, Initial residual = 1.08773e-06, Final residual = 6.02615e-07, No Iterations 1
time step continuity errors : sum local = 3.47212e-10, global = -2.79154e-20, cumulative = 6.61501e-18
ExecutionTime = 2.09 s  ClockTime = 6 s

Time = 0.88875

Courant Number mean: 0.225658 max: 0.963311
smoothSolver:  Solving for Ux, Initial residual = 4.26383e-07, Final residual = 4.26383e-07, No Iterations 0
smoothSolver:  Solving for Uy, Initial residual = 9.38646e-07, Final residual = 9.38646e-07, No Iterations 0
DICPCG:  Solving for p, Initial residual = 9.0459e-07, Final residual = 9.0459e-07, No Iterations 0
time step continuity errors : sum local = 5.1916e-10, global = 2.62759e-21, cumulative = 6.61764e-18
DICPCG:  Solving for p, Initial residual = 1.09308e-06, Final residual = 6.04154e-07, No Iterations 1
time step continuity errors : sum local = 3.48113e-10, global = 1.88106e-19, cumulative = 6.80574e-18
ExecutionTime = 2.1 s  ClockTime = 6 s

Time = 0.89

Courant Number mean: 0.225658 max: 0.963311
smoothSolver:  Solving for Ux, Initial residual = 4.23949e-07, Final residual = 4.23949e-07, No Iterations 0
smoothSolver:  Solving for Uy, Initial residual = 9.32656e-07, Final residual = 9.32656e-07, No Iterations 0
DICPCG:  Solving for p, Initial residual = 9.08985e-07, Final residual = 9.08985e-07, No Iterations 0
time step continuity errors : sum local = 5.21685e-10, global = -1.01957e-19, cumulative = 6.70379e-18
DICPCG:  Solving for p, Initial residual = 1.09986e-06, Final residual = 6.07439e-07, No Iterations 1
time step continuity errors : sum local = 3.50015e-10, global = -1.44069e-19, cumulative = 6.55972e-18
ExecutionTime = 2.11 s  ClockTime = 6 s

Time = 0.89125

Courant Number mean: 0.225658 max: 0.963311
smoothSolver:  Solving for Ux, Initial residual = 4.21529e-07, Final residual = 4.21529e-07, No Iterations 0
smoothSolver:  Solving for Uy, Initial residual = 9.26632e-07, Final residual = 9.26632e-07, No Iterations 0
DICPCG:  Solving for p, Initial residual = 9.14395e-07, Final residual = 9.14395e-07, No Iterations 0
time step continuity errors : sum local = 5.24799e-10, global = -1.87841e-19, cumulative = 6.37188e-18
DICPCG:  Solving for p, Initial residual = 1.10682e-06, Final residual = 6.10515e-07, No Iterations 1
time step continuity errors : sum local = 3.51799e-10, global = 5.52416e-19, cumulative = 6.92429e-18
ExecutionTime = 2.12 s  ClockTime = 6 s

Time = 0.8925

Courant Number mean: 0.225658 max: 0.963311
smoothSolver:  Solving for Ux, Initial residual = 4.19063e-07, Final residual = 4.19063e-07, No Iterations 0
smoothSolver:  Solving for Uy, Initial residual = 9.20828e-07, Final residual = 9.20828e-07, No Iterations 0
DICPCG:  Solving for p, Initial residual = 9.22973e-07, Final residual = 9.22973e-07, No Iterations 0
time step continuity errors : sum local = 5.29714e-10, global = 3.43009e-20, cumulative = 6.95859e-18
DICPCG:  Solving for p, Initial residual = 1.11871e-06, Final residual = 6.1511e-07, No Iterations 1
time step continuity errors : sum local = 3.54452e-10, global = 4.24987e-20, cumulative = 7.00109e-18
ExecutionTime = 2.12 s  ClockTime = 6 s

Time = 0.89375

Courant Number mean: 0.225658 max: 0.963311
smoothSolver:  Solving for Ux, Initial residual = 4.16615e-07, Final residual = 4.16615e-07, No Iterations 0
smoothSolver:  Solving for Uy, Initial residual = 9.14973e-07, Final residual = 9.14973e-07, No Iterations 0
DICPCG:  Solving for p, Initial residual = 9.32854e-07, Final residual = 9.32854e-07, No Iterations 0
time step continuity errors : sum local = 5.35379e-10, global = -1.01974e-19, cumulative = 6.89912e-18
DICPCG:  Solving for p, Initial residual = 1.13081e-06, Final residual = 6.20935e-07, No Iterations 1
time step continuity errors : sum local = 3.57806e-10, global = -2.79264e-20, cumulative = 6.87119e-18
ExecutionTime = 2.12 s  ClockTime = 6 s

Time = 0.895

Courant Number mean: 0.225658 max: 0.963311
smoothSolver:  Solving for Ux, Initial residual = 4.14121e-07, Final residual = 4.14121e-07, No Iterations 0
smoothSolver:  Solving for Uy, Initial residual = 9.09335e-07, Final residual = 9.09335e-07, No Iterations 0
DICPCG:  Solving for p, Initial residual = 9.45713e-07, Final residual = 9.45713e-07, No Iterations 0
time step continuity errors : sum local = 5.42737e-10, global = 1.65895e-19, cumulative = 7.03709e-18
DICPCG:  Solving for p, Initial residual = 1.14788e-06, Final residual = 6.28819e-07, No Iterations 1
time step continuity errors : sum local = 3.62335e-10, global = 1.84985e-19, cumulative = 7.22207e-18
ExecutionTime = 2.12 s  ClockTime = 6 s

Time = 0.89625

Courant Number mean: 0.225658 max: 0.963311
smoothSolver:  Solving for Ux, Initial residual = 4.11638e-07, Final residual = 4.11638e-07, No Iterations 0
smoothSolver:  Solving for Uy, Initial residual = 9.03622e-07, Final residual = 9.03622e-07, No Iterations 0
DICPCG:  Solving for p, Initial residual = 9.6039e-07, Final residual = 9.6039e-07, No Iterations 0
time step continuity errors : sum local = 5.51135e-10, global = 2.61129e-19, cumulative = 7.4832e-18
DICPCG:  Solving for p, Initial residual = 1.16611e-06, Final residual = 6.3831e-07, No Iterations 1
time step continuity errors : sum local = 3.67777e-10, global = 1.45094e-19, cumulative = 7.62829e-18
ExecutionTime = 2.13 s  ClockTime = 6 s

Time = 0.8975

Courant Number mean: 0.225658 max: 0.963311
smoothSolver:  Solving for Ux, Initial residual = 4.09119e-07, Final residual = 4.09119e-07, No Iterations 0
smoothSolver:  Solving for Uy, Initial residual = 8.98137e-07, Final residual = 8.98137e-07, No Iterations 0
DICPCG:  Solving for p, Initial residual = 9.77807e-07, Final residual = 9.77807e-07, No Iterations 0
time step continuity errors : sum local = 5.61089e-10, global = 1.83001e-19, cumulative = 7.8113e-18
DICPCG:  Solving for p, Initial residual = 1.18814e-06, Final residual = 6.4916e-07, No Iterations 1
time step continuity errors : sum local = 3.73995e-10, global = 1.67788e-19, cumulative = 7.97908e-18
ExecutionTime = 2.13 s  ClockTime = 6 s

Time = 0.89875

Courant Number mean: 0.225658 max: 0.963311
smoothSolver:  Solving for Ux, Initial residual = 4.06617e-07, Final residual = 4.06617e-07, No Iterations 0
smoothSolver:  Solving for Uy, Initial residual = 8.92562e-07, Final residual = 8.92562e-07, No Iterations 0
DICPCG:  Solving for p, Initial residual = 9.96186e-07, Final residual = 9.96186e-07, No Iterations 0
time step continuity errors : sum local = 5.71596e-10, global = -5.39283e-22, cumulative = 7.97854e-18
DICPCG:  Solving for p, Initial residual = 1.21068e-06, Final residual = 6.6135e-07, No Iterations 1
time step continuity errors : sum local = 3.80975e-10, global = 3.47707e-20, cumulative = 8.01332e-18
ExecutionTime = 2.13 s  ClockTime = 6 s

Time = 0.9

Courant Number mean: 0.225658 max: 0.963311
smoothSolver:  Solving for Ux, Initial residual = 4.04071e-07, Final residual = 4.04071e-07, No Iterations 0
smoothSolver:  Solving for Uy, Initial residual = 8.87228e-07, Final residual = 8.87228e-07, No Iterations 0
DICPCG:  Solving for p, Initial residual = 1.01657e-06, Final residual = 7.30514e-07, No Iterations 1
time step continuity errors : sum local = 4.20398e-10, global = 1.84959e-19, cumulative = 8.19827e-18
DICPCG:  Solving for p, Initial residual = 9.34629e-07, Final residual = 9.34629e-07, No Iterations 0
time step continuity errors : sum local = 5.36626e-10, global = 7.41441e-20, cumulative = 8.27242e-18
ExecutionTime = 2.13 s  ClockTime = 6 s

End

